output/AGF01I2/Cargas_IP_DU02_AGF01I2.dss
New "Load.IP_IP1044012_15070_M1" bus1="3807955038467923.1.4" phases=1 conn=Wye model=1 kv=0.219 kw = 0.1827513 pf=0.92 status=variable vmaxpu=1.5 vminpu=0.93 daily="IP-Tipo1_DU" 
New "Load.IP_IP1044012_15070_M2" bus1="3807955038467923.1.4" phases=1 conn=Wye model=2 kv=0.219 kw = 0.1827513 pf=0.92 status=variable vmaxpu=1.5 vminpu=0.93 daily="IP-Tipo1_DU"
 
New "Load.IP_IP1044014_15071_M1" bus1="3807942338467585.1.4" phases=1 conn=Wye model=1 kv=0.219 kw = 0.1827513 pf=0.92 status=variable vmaxpu=1.5 vminpu=0.93 daily="IP-Tipo1_DU" 
New "Load.IP_IP1044014_15071_M2" bus1="3807942338467585.1.4" phases=1 conn=Wye model=2 kv=0.219 kw = 0.1827513 pf=0.92 status=variable vmaxpu=1.5 vminpu=0.93 daily="IP-Tipo1_DU"
 
New "Load.IP_IP1044016_15072_M1" bus1="3807823838467199.1.4" phases=1 conn=Wye model=1 kv=0.219 kw = 0.1827513 pf=0.92 status=variable vmaxpu=1.5 vminpu=0.93 daily="IP-Tipo1_DU" 
New "Load.IP_IP1044016_15072_M2" bus1="3807823838467199.1.4" phases=1 conn=Wye model=2 kv=0.219 kw = 0.1827513 pf=0.92 status=variable vmaxpu=1.5 vminpu=0.93 daily="IP-Tipo1_DU"
 
New "Load.IP_IP1044019_15073_M1" bus1="3807922938466639.1.4" phases=1 conn=Wye model=1 kv=0.219 kw = 0.1827513 pf=0.92 status=variable vmaxpu=1.5 vminpu=0.93 daily="IP-Tipo1_DU" 
New "Load.IP_IP1044019_15073_M2" bus1="3807922938466639.1.4" phases=1 conn=Wye model=2 kv=0.219 kw = 0.1827513 pf=0.92 status=variable vmaxpu=1.5 vminpu=0.93 daily="IP-Tipo1_DU"
 
New "Load.IP_IP1044024_15074_M1" bus1="3807934938466318.1.4" phases=1 conn=Wye model=1 kv=0.219 kw = 0.1827513 pf=0.92 status=variable vmaxpu=1.5 vminpu=0.93 daily="IP-Tipo1_DU" 
New "Load.IP_IP1044024_15074_M2" bus1="3807934938466318.1.4" phases=1 conn=Wye model=2 kv=0.219 kw = 0.1827513 pf=0.92 status=variable vmaxpu=1.5 vminpu=0.93 daily="IP-Tipo1_DU"
 
New "Load.IP_IP1044028_15075_M1" bus1="3807960538466028.1.4" phases=1 conn=Wye model=1 kv=0.219 kw = 0.1827513 pf=0.92 status=variable vmaxpu=1.5 vminpu=0.93 daily="IP-Tipo1_DU" 
New "Load.IP_IP1044028_15075_M2" bus1="3807960538466028.1.4" phases=1 conn=Wye model=2 kv=0.219 kw = 0.1827513 pf=0.92 status=variable vmaxpu=1.5 vminpu=0.93 daily="IP-Tipo1_DU"
 
New "Load.IP_IP1044035_15076_M1" bus1="3807988938465423.1.4" phases=1 conn=Wye model=1 kv=0.219 kw = 0.1827513 pf=0.92 status=variable vmaxpu=1.5 vminpu=0.93 daily="IP-Tipo1_DU" 
New "Load.IP_IP1044035_15076_M2" bus1="3807988938465423.1.4" phases=1 conn=Wye model=2 kv=0.219 kw = 0.1827513 pf=0.92 status=variable vmaxpu=1.5 vminpu=0.93 daily="IP-Tipo1_DU"
 
New "Load.IP_IP1044036_15077_M1" bus1="3807972638465708.1.4" phases=1 conn=Wye model=1 kv=0.219 kw = 0.1827513 pf=0.92 status=variable vmaxpu=1.5 vminpu=0.93 daily="IP-Tipo1_DU" 
New "Load.IP_IP1044036_15077_M2" bus1="3807972638465708.1.4" phases=1 conn=Wye model=2 kv=0.219 kw = 0.1827513 pf=0.92 status=variable vmaxpu=1.5 vminpu=0.93 daily="IP-Tipo1_DU"
 
New "Load.IP_IP1044095_15091_M1" bus1="3808351738463535.1.4" phases=1 conn=Wye model=1 kv=0.219 kw = 0.1827513 pf=0.92 status=variable vmaxpu=1.5 vminpu=0.93 daily="IP-Tipo1_DU" 
New "Load.IP_IP1044095_15091_M2" bus1="3808351738463535.1.4" phases=1 conn=Wye model=2 kv=0.219 kw = 0.1827513 pf=0.92 status=variable vmaxpu=1.5 vminpu=0.93 daily="IP-Tipo1_DU"
 
New "Load.IP_IP1044112_15092_M1" bus1="3807937338462556.1.4" phases=1 conn=Wye model=1 kv=0.219 kw = 0.1827513 pf=0.92 status=variable vmaxpu=1.5 vminpu=0.93 daily="IP-Tipo1_DU" 
New "Load.IP_IP1044112_15092_M2" bus1="3807937338462556.1.4" phases=1 conn=Wye model=2 kv=0.219 kw = 0.1827513 pf=0.92 status=variable vmaxpu=1.5 vminpu=0.93 daily="IP-Tipo1_DU"
 
New "Load.IP_IP1044113_15093_M1" bus1="3807854138461907.2.4" phases=1 conn=Wye model=1 kv=0.219 kw = 0.1827513 pf=0.92 status=variable vmaxpu=1.5 vminpu=0.93 daily="IP-Tipo1_DU" 
New "Load.IP_IP1044113_15093_M2" bus1="3807854138461907.2.4" phases=1 conn=Wye model=2 kv=0.219 kw = 0.1827513 pf=0.92 status=variable vmaxpu=1.5 vminpu=0.93 daily="IP-Tipo1_DU"
 
New "Load.IP_IP1044126_15094_M1" bus1="3807892038460457.1.4" phases=1 conn=Wye model=1 kv=0.219 kw = 0.1827513 pf=0.92 status=variable vmaxpu=1.5 vminpu=0.93 daily="IP-Tipo1_DU" 
New "Load.IP_IP1044126_15094_M2" bus1="3807892038460457.1.4" phases=1 conn=Wye model=2 kv=0.219 kw = 0.1827513 pf=0.92 status=variable vmaxpu=1.5 vminpu=0.93 daily="IP-Tipo1_DU"
 
New "Load.IP_IP1044136_15095_M1" bus1="3806488238455631.1.4" phases=1 conn=Wye model=1 kv=0.219 kw = 0.1827513 pf=0.92 status=variable vmaxpu=1.5 vminpu=0.93 daily="IP-Tipo1_DU" 
New "Load.IP_IP1044136_15095_M2" bus1="3806488238455631.1.4" phases=1 conn=Wye model=2 kv=0.219 kw = 0.1827513 pf=0.92 status=variable vmaxpu=1.5 vminpu=0.93 daily="IP-Tipo1_DU"
 
New "Load.IP_IP1044137_15096_M1" bus1="3806580438454998.1.4" phases=1 conn=Wye model=1 kv=0.219 kw = 0.1827513 pf=0.92 status=variable vmaxpu=1.5 vminpu=0.93 daily="IP-Tipo1_DU" 
New "Load.IP_IP1044137_15096_M2" bus1="3806580438454998.1.4" phases=1 conn=Wye model=2 kv=0.219 kw = 0.1827513 pf=0.92 status=variable vmaxpu=1.5 vminpu=0.93 daily="IP-Tipo1_DU"
 
New "Load.IP_IP1044144_15097_M1" bus1="3806174238453800.2.4" phases=1 conn=Wye model=1 kv=0.219 kw = 0.1827513 pf=0.92 status=variable vmaxpu=1.5 vminpu=0.93 daily="IP-Tipo1_DU" 
New "Load.IP_IP1044144_15097_M2" bus1="3806174238453800.2.4" phases=1 conn=Wye model=2 kv=0.219 kw = 0.1827513 pf=0.92 status=variable vmaxpu=1.5 vminpu=0.93 daily="IP-Tipo1_DU"
 
New "Load.IP_IP1044148_15098_M1" bus1="3806091938453324.1.4" phases=1 conn=Wye model=1 kv=0.219 kw = 0.1827513 pf=0.92 status=variable vmaxpu=1.5 vminpu=0.93 daily="IP-Tipo1_DU" 
New "Load.IP_IP1044148_15098_M2" bus1="3806091938453324.1.4" phases=1 conn=Wye model=2 kv=0.219 kw = 0.1827513 pf=0.92 status=variable vmaxpu=1.5 vminpu=0.93 daily="IP-Tipo1_DU"
 
New "Load.IP_IP1044151_15099_M1" bus1="3806031238452995.1.4" phases=1 conn=Wye model=1 kv=0.219 kw = 0.1827513 pf=0.92 status=variable vmaxpu=1.5 vminpu=0.93 daily="IP-Tipo1_DU" 
New "Load.IP_IP1044151_15099_M2" bus1="3806031238452995.1.4" phases=1 conn=Wye model=2 kv=0.219 kw = 0.1827513 pf=0.92 status=variable vmaxpu=1.5 vminpu=0.93 daily="IP-Tipo1_DU"
 
New "Load.IP_IP1044157_15100_M1" bus1="3805968438452587.1.4" phases=1 conn=Wye model=1 kv=0.219 kw = 0.1827513 pf=0.92 status=variable vmaxpu=1.5 vminpu=0.93 daily="IP-Tipo1_DU" 
New "Load.IP_IP1044157_15100_M2" bus1="3805968438452587.1.4" phases=1 conn=Wye model=2 kv=0.219 kw = 0.1827513 pf=0.92 status=variable vmaxpu=1.5 vminpu=0.93 daily="IP-Tipo1_DU"
 
New "Load.IP_IP1044162_15101_M1" bus1="3805905438452196.1.4" phases=1 conn=Wye model=1 kv=0.219 kw = 0.1827513 pf=0.92 status=variable vmaxpu=1.5 vminpu=0.93 daily="IP-Tipo1_DU" 
New "Load.IP_IP1044162_15101_M2" bus1="3805905438452196.1.4" phases=1 conn=Wye model=2 kv=0.219 kw = 0.1827513 pf=0.92 status=variable vmaxpu=1.5 vminpu=0.93 daily="IP-Tipo1_DU"
 
New "Load.IP_IP1044169_15102_M1" bus1="3806572038455976.1.4" phases=1 conn=Wye model=1 kv=0.219 kw = 0.1827513 pf=0.92 status=variable vmaxpu=1.5 vminpu=0.93 daily="IP-Tipo1_DU" 
New "Load.IP_IP1044169_15102_M2" bus1="3806572038455976.1.4" phases=1 conn=Wye model=2 kv=0.219 kw = 0.1827513 pf=0.92 status=variable vmaxpu=1.5 vminpu=0.93 daily="IP-Tipo1_DU"
 
New "Load.IP_IP1044178_15103_M1" bus1="3806761738456861.2.4" phases=1 conn=Wye model=1 kv=0.219 kw = 0.1827513 pf=0.92 status=variable vmaxpu=1.5 vminpu=0.93 daily="IP-Tipo1_DU" 
New "Load.IP_IP1044178_15103_M2" bus1="3806761738456861.2.4" phases=1 conn=Wye model=2 kv=0.219 kw = 0.1827513 pf=0.92 status=variable vmaxpu=1.5 vminpu=0.93 daily="IP-Tipo1_DU"
 
New "Load.IP_IP1044182_15104_M1" bus1="3806923838457620.1.4" phases=1 conn=Wye model=1 kv=0.219 kw = 0.1827513 pf=0.92 status=variable vmaxpu=1.5 vminpu=0.93 daily="IP-Tipo1_DU" 
New "Load.IP_IP1044182_15104_M2" bus1="3806923838457620.1.4" phases=1 conn=Wye model=2 kv=0.219 kw = 0.1827513 pf=0.92 status=variable vmaxpu=1.5 vminpu=0.93 daily="IP-Tipo1_DU"
 
New "Load.IP_IP1044184_15105_M1" bus1="3807362738457880.1.4" phases=1 conn=Wye model=1 kv=0.219 kw = 0.1827513 pf=0.92 status=variable vmaxpu=1.5 vminpu=0.93 daily="IP-Tipo1_DU" 
New "Load.IP_IP1044184_15105_M2" bus1="3807362738457880.1.4" phases=1 conn=Wye model=2 kv=0.219 kw = 0.1827513 pf=0.92 status=variable vmaxpu=1.5 vminpu=0.93 daily="IP-Tipo1_DU"
 
New "Load.IP_IP1044186_15106_M1" bus1="3807075538458403.1.4" phases=1 conn=Wye model=1 kv=0.219 kw = 0.1827513 pf=0.92 status=variable vmaxpu=1.5 vminpu=0.93 daily="IP-Tipo1_DU" 
New "Load.IP_IP1044186_15106_M2" bus1="3807075538458403.1.4" phases=1 conn=Wye model=2 kv=0.219 kw = 0.1827513 pf=0.92 status=variable vmaxpu=1.5 vminpu=0.93 daily="IP-Tipo1_DU"
 
New "Load.IP_IP1044187_15107_M1" bus1="3807233438459065.1.4" phases=1 conn=Wye model=1 kv=0.219 kw = 0.1827513 pf=0.92 status=variable vmaxpu=1.5 vminpu=0.93 daily="IP-Tipo1_DU" 
New "Load.IP_IP1044187_15107_M2" bus1="3807233438459065.1.4" phases=1 conn=Wye model=2 kv=0.219 kw = 0.1827513 pf=0.92 status=variable vmaxpu=1.5 vminpu=0.93 daily="IP-Tipo1_DU"
 
New "Load.IP_IP1044196_15108_M1" bus1="3807288838459308.1.4" phases=1 conn=Wye model=1 kv=0.219 kw = 0.1827513 pf=0.92 status=variable vmaxpu=1.5 vminpu=0.93 daily="IP-Tipo1_DU" 
New "Load.IP_IP1044196_15108_M2" bus1="3807288838459308.1.4" phases=1 conn=Wye model=2 kv=0.219 kw = 0.1827513 pf=0.92 status=variable vmaxpu=1.5 vminpu=0.93 daily="IP-Tipo1_DU"
 
New "Load.IP_IP1044197_15109_M1" bus1="3807558038458997.2.4" phases=1 conn=Wye model=1 kv=0.219 kw = 0.1827513 pf=0.92 status=variable vmaxpu=1.5 vminpu=0.93 daily="IP-Tipo1_DU" 
New "Load.IP_IP1044197_15109_M2" bus1="3807558038458997.2.4" phases=1 conn=Wye model=2 kv=0.219 kw = 0.1827513 pf=0.92 status=variable vmaxpu=1.5 vminpu=0.93 daily="IP-Tipo1_DU"
 
New "Load.IP_IP1044199_15110_M1" bus1="3807694638459776.2.4" phases=1 conn=Wye model=1 kv=0.219 kw = 0.1827513 pf=0.92 status=variable vmaxpu=1.5 vminpu=0.93 daily="IP-Tipo1_DU" 
New "Load.IP_IP1044199_15110_M2" bus1="3807694638459776.2.4" phases=1 conn=Wye model=2 kv=0.219 kw = 0.1827513 pf=0.92 status=variable vmaxpu=1.5 vminpu=0.93 daily="IP-Tipo1_DU"
 
New "Load.IP_IP1044543_15167_M1" bus1="3807731338471235.2.4" phases=1 conn=Wye model=1 kv=0.219 kw = 0.1827513 pf=0.92 status=variable vmaxpu=1.5 vminpu=0.93 daily="IP-Tipo1_DU" 
New "Load.IP_IP1044543_15167_M2" bus1="3807731338471235.2.4" phases=1 conn=Wye model=2 kv=0.219 kw = 0.1827513 pf=0.92 status=variable vmaxpu=1.5 vminpu=0.93 daily="IP-Tipo1_DU"
 
New "Load.IP_IP1044544_15168_M1" bus1="3808401538471181.1.4" phases=1 conn=Wye model=1 kv=0.219 kw = 0.1827513 pf=0.92 status=variable vmaxpu=1.5 vminpu=0.93 daily="IP-Tipo1_DU" 
New "Load.IP_IP1044544_15168_M2" bus1="3808401538471181.1.4" phases=1 conn=Wye model=2 kv=0.219 kw = 0.1827513 pf=0.92 status=variable vmaxpu=1.5 vminpu=0.93 daily="IP-Tipo1_DU"
 
New "Load.IP_IP1044547_15169_M1" bus1="3808128038470421.1.4" phases=1 conn=Wye model=1 kv=0.219 kw = 0.1827513 pf=0.92 status=variable vmaxpu=1.5 vminpu=0.93 daily="IP-Tipo1_DU" 
New "Load.IP_IP1044547_15169_M2" bus1="3808128038470421.1.4" phases=1 conn=Wye model=2 kv=0.219 kw = 0.1827513 pf=0.92 status=variable vmaxpu=1.5 vminpu=0.93 daily="IP-Tipo1_DU"
 
New "Load.IP_IP1044552_15170_M1" bus1="3808101938469561.1.4" phases=1 conn=Wye model=1 kv=0.219 kw = 0.1827513 pf=0.92 status=variable vmaxpu=1.5 vminpu=0.93 daily="IP-Tipo1_DU" 
New "Load.IP_IP1044552_15170_M2" bus1="3808101938469561.1.4" phases=1 conn=Wye model=2 kv=0.219 kw = 0.1827513 pf=0.92 status=variable vmaxpu=1.5 vminpu=0.93 daily="IP-Tipo1_DU"
 
New "Load.IP_IP1044557_15171_M1" bus1="3808477738469508.1.4" phases=1 conn=Wye model=1 kv=0.219 kw = 0.1827513 pf=0.92 status=variable vmaxpu=1.5 vminpu=0.93 daily="IP-Tipo1_DU" 
New "Load.IP_IP1044557_15171_M2" bus1="3808477738469508.1.4" phases=1 conn=Wye model=2 kv=0.219 kw = 0.1827513 pf=0.92 status=variable vmaxpu=1.5 vminpu=0.93 daily="IP-Tipo1_DU"
 
New "Load.IP_IP1044560_15172_M1" bus1="3808741938468544.2.4" phases=1 conn=Wye model=1 kv=0.219 kw = 0.1827513 pf=0.92 status=variable vmaxpu=1.5 vminpu=0.93 daily="IP-Tipo1_DU" 
New "Load.IP_IP1044560_15172_M2" bus1="3808741938468544.2.4" phases=1 conn=Wye model=2 kv=0.219 kw = 0.1827513 pf=0.92 status=variable vmaxpu=1.5 vminpu=0.93 daily="IP-Tipo1_DU"
 
New "Load.IP_IP1044631_15189_M1" bus1="3791778638472605.1.4" phases=1 conn=Wye model=1 kv=0.219 kw = 0.1751788 pf=0.92 status=variable vmaxpu=1.5 vminpu=0.93 daily="IP-Tipo1_DU" 
New "Load.IP_IP1044631_15189_M2" bus1="3791778638472605.1.4" phases=1 conn=Wye model=2 kv=0.219 kw = 0.1751788 pf=0.92 status=variable vmaxpu=1.5 vminpu=0.93 daily="IP-Tipo1_DU"
 
New "Load.IP_IP1044690_15211_M1" bus1="3791630438470781.1.4" phases=1 conn=Wye model=1 kv=0.219 kw = 0.1751788 pf=0.92 status=variable vmaxpu=1.5 vminpu=0.93 daily="IP-Tipo1_DU" 
New "Load.IP_IP1044690_15211_M2" bus1="3791630438470781.1.4" phases=1 conn=Wye model=2 kv=0.219 kw = 0.1751788 pf=0.92 status=variable vmaxpu=1.5 vminpu=0.93 daily="IP-Tipo1_DU"
 
New "Load.IP_IP1044694_15212_M1" bus1="3792128838470191.1.4" phases=1 conn=Wye model=1 kv=0.219 kw = 0.1713853 pf=0.92 status=variable vmaxpu=1.5 vminpu=0.93 daily="IP-Tipo1_DU" 
New "Load.IP_IP1044694_15212_M2" bus1="3792128838470191.1.4" phases=1 conn=Wye model=2 kv=0.219 kw = 0.1713853 pf=0.92 status=variable vmaxpu=1.5 vminpu=0.93 daily="IP-Tipo1_DU"
 
New "Load.IP_IP1046384_15857_M1" bus1="3793895238472928.1.4" phases=1 conn=Wye model=1 kv=0.219 kw = 0.1751788 pf=0.92 status=variable vmaxpu=1.5 vminpu=0.93 daily="IP-Tipo1_DU" 
New "Load.IP_IP1046384_15857_M2" bus1="3793895238472928.1.4" phases=1 conn=Wye model=2 kv=0.219 kw = 0.1751788 pf=0.92 status=variable vmaxpu=1.5 vminpu=0.93 daily="IP-Tipo1_DU"
 
New "Load.IP_IP1046387_15859_M1" bus1="3793865538472556.1.4" phases=1 conn=Wye model=1 kv=0.219 kw = 0.1751788 pf=0.92 status=variable vmaxpu=1.5 vminpu=0.93 daily="IP-Tipo1_DU" 
New "Load.IP_IP1046387_15859_M2" bus1="3793865538472556.1.4" phases=1 conn=Wye model=2 kv=0.219 kw = 0.1751788 pf=0.92 status=variable vmaxpu=1.5 vminpu=0.93 daily="IP-Tipo1_DU"
 
New "Load.IP_IP1046390_15860_M1" bus1="3794214538472408.1.4" phases=1 conn=Wye model=1 kv=0.219 kw = 0.1827513 pf=0.92 status=variable vmaxpu=1.5 vminpu=0.93 daily="IP-Tipo1_DU" 
New "Load.IP_IP1046390_15860_M2" bus1="3794214538472408.1.4" phases=1 conn=Wye model=2 kv=0.219 kw = 0.1827513 pf=0.92 status=variable vmaxpu=1.5 vminpu=0.93 daily="IP-Tipo1_DU"
 
New "Load.IP_IP1046391_15861_M1" bus1="3795001738471996.1.4" phases=1 conn=Wye model=1 kv=0.219 kw = 0.1827513 pf=0.92 status=variable vmaxpu=1.5 vminpu=0.93 daily="IP-Tipo1_DU" 
New "Load.IP_IP1046391_15861_M2" bus1="3795001738471996.1.4" phases=1 conn=Wye model=2 kv=0.219 kw = 0.1827513 pf=0.92 status=variable vmaxpu=1.5 vminpu=0.93 daily="IP-Tipo1_DU"
 
New "Load.IP_IP1046393_15862_M1" bus1="297565110TR.1.4" phases=1 conn=Wye model=1 kv=0.219 kw = 0.1827513 pf=0.92 status=variable vmaxpu=1.5 vminpu=0.93 daily="IP-Tipo1_DU" 
New "Load.IP_IP1046393_15862_M2" bus1="297565110TR.1.4" phases=1 conn=Wye model=2 kv=0.219 kw = 0.1827513 pf=0.92 status=variable vmaxpu=1.5 vminpu=0.93 daily="IP-Tipo1_DU"
 
New "Load.IP_IP1046394_15863_M1" bus1="297565110TR.1.4" phases=1 conn=Wye model=1 kv=0.219 kw = 0.1827513 pf=0.92 status=variable vmaxpu=1.5 vminpu=0.93 daily="IP-Tipo1_DU" 
New "Load.IP_IP1046394_15863_M2" bus1="297565110TR.1.4" phases=1 conn=Wye model=2 kv=0.219 kw = 0.1827513 pf=0.92 status=variable vmaxpu=1.5 vminpu=0.93 daily="IP-Tipo1_DU"
 
New "Load.IP_IP1046398_15864_M1" bus1="3792854838472513.1.4" phases=1 conn=Wye model=1 kv=0.219 kw = 0.1751788 pf=0.92 status=variable vmaxpu=1.5 vminpu=0.93 daily="IP-Tipo1_DU" 
New "Load.IP_IP1046398_15864_M2" bus1="3792854838472513.1.4" phases=1 conn=Wye model=2 kv=0.219 kw = 0.1751788 pf=0.92 status=variable vmaxpu=1.5 vminpu=0.93 daily="IP-Tipo1_DU"
 
New "Load.IP_IP1046401_15865_M1" bus1="3792960838471738.1.4" phases=1 conn=Wye model=1 kv=0.219 kw = 0.1713853 pf=0.92 status=variable vmaxpu=1.5 vminpu=0.93 daily="IP-Tipo1_DU" 
New "Load.IP_IP1046401_15865_M2" bus1="3792960838471738.1.4" phases=1 conn=Wye model=2 kv=0.219 kw = 0.1713853 pf=0.92 status=variable vmaxpu=1.5 vminpu=0.93 daily="IP-Tipo1_DU"
 
New "Load.IP_IP1046402_15866_M1" bus1="3792421638471496.1.4" phases=1 conn=Wye model=1 kv=0.219 kw = 0.1713853 pf=0.92 status=variable vmaxpu=1.5 vminpu=0.93 daily="IP-Tipo1_DU" 
New "Load.IP_IP1046402_15866_M2" bus1="3792421638471496.1.4" phases=1 conn=Wye model=2 kv=0.219 kw = 0.1713853 pf=0.92 status=variable vmaxpu=1.5 vminpu=0.93 daily="IP-Tipo1_DU"
 
New "Load.IP_IP1046403_15867_M1" bus1="3792397238471091.1.4" phases=1 conn=Wye model=1 kv=0.219 kw = 0.1751788 pf=0.92 status=variable vmaxpu=1.5 vminpu=0.93 daily="IP-Tipo1_DU" 
New "Load.IP_IP1046403_15867_M2" bus1="3792397238471091.1.4" phases=1 conn=Wye model=2 kv=0.219 kw = 0.1751788 pf=0.92 status=variable vmaxpu=1.5 vminpu=0.93 daily="IP-Tipo1_DU"
 
New "Load.IP_IP1046406_15868_M1" bus1="3792360738470716.1.4" phases=1 conn=Wye model=1 kv=0.219 kw = 0.1751788 pf=0.92 status=variable vmaxpu=1.5 vminpu=0.93 daily="IP-Tipo1_DU" 
New "Load.IP_IP1046406_15868_M2" bus1="3792360738470716.1.4" phases=1 conn=Wye model=2 kv=0.219 kw = 0.1751788 pf=0.92 status=variable vmaxpu=1.5 vminpu=0.93 daily="IP-Tipo1_DU"
 
New "Load.IP_IP1046407_15869_M1" bus1="3791888038470482.1.4" phases=1 conn=Wye model=1 kv=0.219 kw = 0.1751788 pf=0.92 status=variable vmaxpu=1.5 vminpu=0.93 daily="IP-Tipo1_DU" 
New "Load.IP_IP1046407_15869_M2" bus1="3791888038470482.1.4" phases=1 conn=Wye model=2 kv=0.219 kw = 0.1751788 pf=0.92 status=variable vmaxpu=1.5 vminpu=0.93 daily="IP-Tipo1_DU"
 
New "Load.IP_IP1046415_15871_M1" bus1="3792072938471806.1.4" phases=1 conn=Wye model=1 kv=0.219 kw = 0.1827513 pf=0.92 status=variable vmaxpu=1.5 vminpu=0.93 daily="IP-Tipo1_DU" 
New "Load.IP_IP1046415_15871_M2" bus1="3792072938471806.1.4" phases=1 conn=Wye model=2 kv=0.219 kw = 0.1827513 pf=0.92 status=variable vmaxpu=1.5 vminpu=0.93 daily="IP-Tipo1_DU"
 
New "Load.IP_IP1049263_16941_M1" bus1="3806409238471820.1.4" phases=1 conn=Wye model=1 kv=0.219 kw = 0.1751788 pf=0.92 status=variable vmaxpu=1.5 vminpu=0.93 daily="IP-Tipo1_DU" 
New "Load.IP_IP1049263_16941_M2" bus1="3806409238471820.1.4" phases=1 conn=Wye model=2 kv=0.219 kw = 0.1751788 pf=0.92 status=variable vmaxpu=1.5 vminpu=0.93 daily="IP-Tipo1_DU"
 
New "Load.IP_IP1049265_16942_M1" bus1="3806744638471321.2.4" phases=1 conn=Wye model=1 kv=0.219 kw = 0.1751788 pf=0.92 status=variable vmaxpu=1.5 vminpu=0.93 daily="IP-Tipo1_DU" 
New "Load.IP_IP1049265_16942_M2" bus1="3806744638471321.2.4" phases=1 conn=Wye model=2 kv=0.219 kw = 0.1751788 pf=0.92 status=variable vmaxpu=1.5 vminpu=0.93 daily="IP-Tipo1_DU"
 
New "Load.IP_IP1049272_16945_M1" bus1="3807767438470542.1.4" phases=1 conn=Wye model=1 kv=0.219 kw = 0.1827513 pf=0.92 status=variable vmaxpu=1.5 vminpu=0.93 daily="IP-Tipo1_DU" 
New "Load.IP_IP1049272_16945_M2" bus1="3807767438470542.1.4" phases=1 conn=Wye model=2 kv=0.219 kw = 0.1827513 pf=0.92 status=variable vmaxpu=1.5 vminpu=0.93 daily="IP-Tipo1_DU"
 
New "Load.IP_IP1049273_16946_M1" bus1="3806730538470561.2.4" phases=1 conn=Wye model=1 kv=0.219 kw = 0.1827513 pf=0.92 status=variable vmaxpu=1.5 vminpu=0.93 daily="IP-Tipo1_DU" 
New "Load.IP_IP1049273_16946_M2" bus1="3806730538470561.2.4" phases=1 conn=Wye model=2 kv=0.219 kw = 0.1827513 pf=0.92 status=variable vmaxpu=1.5 vminpu=0.93 daily="IP-Tipo1_DU"
 
New "Load.IP_IP1049276_16947_M1" bus1="3806195138470582.2.4" phases=1 conn=Wye model=1 kv=0.219 kw = 0.1827513 pf=0.92 status=variable vmaxpu=1.5 vminpu=0.93 daily="IP-Tipo1_DU" 
New "Load.IP_IP1049276_16947_M2" bus1="3806195138470582.2.4" phases=1 conn=Wye model=2 kv=0.219 kw = 0.1827513 pf=0.92 status=variable vmaxpu=1.5 vminpu=0.93 daily="IP-Tipo1_DU"
 
New "Load.IP_IP1049277_16948_M1" bus1="3806075538471355.1.4" phases=1 conn=Wye model=1 kv=0.219 kw = 0.1827513 pf=0.92 status=variable vmaxpu=1.5 vminpu=0.93 daily="IP-Tipo1_DU" 
New "Load.IP_IP1049277_16948_M2" bus1="3806075538471355.1.4" phases=1 conn=Wye model=2 kv=0.219 kw = 0.1827513 pf=0.92 status=variable vmaxpu=1.5 vminpu=0.93 daily="IP-Tipo1_DU"
 
New "Load.IP_IP1049280_16949_M1" bus1="3806444238471341.2.4" phases=1 conn=Wye model=1 kv=0.219 kw = 0.1789578 pf=0.92 status=variable vmaxpu=1.5 vminpu=0.93 daily="IP-Tipo1_DU" 
New "Load.IP_IP1049280_16949_M2" bus1="3806444238471341.2.4" phases=1 conn=Wye model=2 kv=0.219 kw = 0.1789578 pf=0.92 status=variable vmaxpu=1.5 vminpu=0.93 daily="IP-Tipo1_DU"
 
New "Load.IP_IP1049281_16950_M1" bus1="3806330938470374.2.4" phases=1 conn=Wye model=1 kv=0.219 kw = 0.1713853 pf=0.92 status=variable vmaxpu=1.5 vminpu=0.93 daily="IP-Tipo1_DU" 
New "Load.IP_IP1049281_16950_M2" bus1="3806330938470374.2.4" phases=1 conn=Wye model=2 kv=0.219 kw = 0.1713853 pf=0.92 status=variable vmaxpu=1.5 vminpu=0.93 daily="IP-Tipo1_DU"
 
New "Load.IP_IP1049283_16951_M1" bus1="3807966138468805.1.4" phases=1 conn=Wye model=1 kv=0.219 kw = 0.1751788 pf=0.92 status=variable vmaxpu=1.5 vminpu=0.93 daily="IP-Tipo1_DU" 
New "Load.IP_IP1049283_16951_M2" bus1="3807966138468805.1.4" phases=1 conn=Wye model=2 kv=0.219 kw = 0.1751788 pf=0.92 status=variable vmaxpu=1.5 vminpu=0.93 daily="IP-Tipo1_DU"
 
New "Load.IP_IP1049284_16952_M1" bus1="3807497238468330.2.4" phases=1 conn=Wye model=1 kv=0.219 kw = 0.1751788 pf=0.92 status=variable vmaxpu=1.5 vminpu=0.93 daily="IP-Tipo1_DU" 
New "Load.IP_IP1049284_16952_M2" bus1="3807497238468330.2.4" phases=1 conn=Wye model=2 kv=0.219 kw = 0.1751788 pf=0.92 status=variable vmaxpu=1.5 vminpu=0.93 daily="IP-Tipo1_DU"
 
New "Load.IP_IP1049286_16953_M1" bus1="3807147138468250.2.4" phases=1 conn=Wye model=1 kv=0.219 kw = 0.1751788 pf=0.92 status=variable vmaxpu=1.5 vminpu=0.93 daily="IP-Tipo1_DU" 
New "Load.IP_IP1049286_16953_M2" bus1="3807147138468250.2.4" phases=1 conn=Wye model=2 kv=0.219 kw = 0.1751788 pf=0.92 status=variable vmaxpu=1.5 vminpu=0.93 daily="IP-Tipo1_DU"
 
New "Load.IP_IP1049287_16954_M1" bus1="3806763038468162.2.4" phases=1 conn=Wye model=1 kv=0.219 kw = 0.1751788 pf=0.92 status=variable vmaxpu=1.5 vminpu=0.93 daily="IP-Tipo1_DU" 
New "Load.IP_IP1049287_16954_M2" bus1="3806763038468162.2.4" phases=1 conn=Wye model=2 kv=0.219 kw = 0.1751788 pf=0.92 status=variable vmaxpu=1.5 vminpu=0.93 daily="IP-Tipo1_DU"
 
New "Load.IP_IP1049294_16955_M1" bus1="3806398838468065.1.4" phases=1 conn=Wye model=1 kv=0.219 kw = 0.1751788 pf=0.92 status=variable vmaxpu=1.5 vminpu=0.93 daily="IP-Tipo1_DU" 
New "Load.IP_IP1049294_16955_M2" bus1="3806398838468065.1.4" phases=1 conn=Wye model=2 kv=0.219 kw = 0.1751788 pf=0.92 status=variable vmaxpu=1.5 vminpu=0.93 daily="IP-Tipo1_DU"
 
New "Load.IP_IP1049295_16956_M1" bus1="3806085438467986.1.4" phases=1 conn=Wye model=1 kv=0.219 kw = 0.1751788 pf=0.92 status=variable vmaxpu=1.5 vminpu=0.93 daily="IP-Tipo1_DU" 
New "Load.IP_IP1049295_16956_M2" bus1="3806085438467986.1.4" phases=1 conn=Wye model=2 kv=0.219 kw = 0.1751788 pf=0.92 status=variable vmaxpu=1.5 vminpu=0.93 daily="IP-Tipo1_DU"
 
New "Load.IP_IP1049296_16957_M1" bus1="3807963538468257.1.4" phases=1 conn=Wye model=1 kv=0.219 kw = 0.1713853 pf=0.92 status=variable vmaxpu=1.5 vminpu=0.93 daily="IP-Tipo1_DU" 
New "Load.IP_IP1049296_16957_M2" bus1="3807963538468257.1.4" phases=1 conn=Wye model=2 kv=0.219 kw = 0.1713853 pf=0.92 status=variable vmaxpu=1.5 vminpu=0.93 daily="IP-Tipo1_DU"
 
New "Load.IP_IP1049297_16958_M1" bus1="3807867638468325.1.4" phases=1 conn=Wye model=1 kv=0.219 kw = 0.1713853 pf=0.92 status=variable vmaxpu=1.5 vminpu=0.93 daily="IP-Tipo1_DU" 
New "Load.IP_IP1049297_16958_M2" bus1="3807867638468325.1.4" phases=1 conn=Wye model=2 kv=0.219 kw = 0.1713853 pf=0.92 status=variable vmaxpu=1.5 vminpu=0.93 daily="IP-Tipo1_DU"
 
New "Load.IP_IP1049299_16959_M1" bus1="3808238438461774.1.4" phases=1 conn=Wye model=1 kv=0.219 kw = 0.1789578 pf=0.92 status=variable vmaxpu=1.5 vminpu=0.93 daily="IP-Tipo1_DU" 
New "Load.IP_IP1049299_16959_M2" bus1="3808238438461774.1.4" phases=1 conn=Wye model=2 kv=0.219 kw = 0.1789578 pf=0.92 status=variable vmaxpu=1.5 vminpu=0.93 daily="IP-Tipo1_DU"
 
New "Load.IP_IP1049300_16960_M1" bus1="3808780538461928.1.4" phases=1 conn=Wye model=1 kv=0.219 kw = 0.1789578 pf=0.92 status=variable vmaxpu=1.5 vminpu=0.93 daily="IP-Tipo1_DU" 
New "Load.IP_IP1049300_16960_M2" bus1="3808780538461928.1.4" phases=1 conn=Wye model=2 kv=0.219 kw = 0.1789578 pf=0.92 status=variable vmaxpu=1.5 vminpu=0.93 daily="IP-Tipo1_DU"
 
New "Load.IP_IP1049301_16961_M1" bus1="3808968638461988.1.4" phases=1 conn=Wye model=1 kv=0.219 kw = 0.1789578 pf=0.92 status=variable vmaxpu=1.5 vminpu=0.93 daily="IP-Tipo1_DU" 
New "Load.IP_IP1049301_16961_M2" bus1="3808968638461988.1.4" phases=1 conn=Wye model=2 kv=0.219 kw = 0.1789578 pf=0.92 status=variable vmaxpu=1.5 vminpu=0.93 daily="IP-Tipo1_DU"
 
New "Load.IP_IP1049307_16962_M1" bus1="3807872538462209.1.4" phases=1 conn=Wye model=1 kv=0.219 kw = 0.1751788 pf=0.92 status=variable vmaxpu=1.5 vminpu=0.93 daily="IP-Tipo1_DU" 
New "Load.IP_IP1049307_16962_M2" bus1="3807872538462209.1.4" phases=1 conn=Wye model=2 kv=0.219 kw = 0.1751788 pf=0.92 status=variable vmaxpu=1.5 vminpu=0.93 daily="IP-Tipo1_DU"
 
New "Load.IP_IP1049311_16964_M1" bus1="3806355238462715.1.4" phases=1 conn=Wye model=1 kv=0.219 kw = 0.1751788 pf=0.92 status=variable vmaxpu=1.5 vminpu=0.93 daily="IP-Tipo1_DU" 
New "Load.IP_IP1049311_16964_M2" bus1="3806355238462715.1.4" phases=1 conn=Wye model=2 kv=0.219 kw = 0.1751788 pf=0.92 status=variable vmaxpu=1.5 vminpu=0.93 daily="IP-Tipo1_DU"
 
New "Load.IP_IP1049314_16965_M1" bus1="3805243938462787.1.4" phases=1 conn=Wye model=1 kv=0.219 kw = 0.1751788 pf=0.92 status=variable vmaxpu=1.5 vminpu=0.93 daily="IP-Tipo1_DU" 
New "Load.IP_IP1049314_16965_M2" bus1="3805243938462787.1.4" phases=1 conn=Wye model=2 kv=0.219 kw = 0.1751788 pf=0.92 status=variable vmaxpu=1.5 vminpu=0.93 daily="IP-Tipo1_DU"
 
New "Load.IP_IP1049326_16967_M1" bus1="3805583938462770.1.4" phases=1 conn=Wye model=1 kv=0.219 kw = 0.1751788 pf=0.92 status=variable vmaxpu=1.5 vminpu=0.93 daily="IP-Tipo1_DU" 
New "Load.IP_IP1049326_16967_M2" bus1="3805583938462770.1.4" phases=1 conn=Wye model=2 kv=0.219 kw = 0.1751788 pf=0.92 status=variable vmaxpu=1.5 vminpu=0.93 daily="IP-Tipo1_DU"
 
New "Load.IP_IP1049342_16969_M1" bus1="3807972838462879.1.4" phases=1 conn=Wye model=1 kv=0.219 kw = 0.1751788 pf=0.92 status=variable vmaxpu=1.5 vminpu=0.93 daily="IP-Tipo1_DU" 
New "Load.IP_IP1049342_16969_M2" bus1="3807972838462879.1.4" phases=1 conn=Wye model=2 kv=0.219 kw = 0.1751788 pf=0.92 status=variable vmaxpu=1.5 vminpu=0.93 daily="IP-Tipo1_DU"
 
New "Load.IP_IP1049343_16970_M1" bus1="3807525538462601.1.4" phases=1 conn=Wye model=1 kv=0.219 kw = 0.1751788 pf=0.92 status=variable vmaxpu=1.5 vminpu=0.93 daily="IP-Tipo1_DU" 
New "Load.IP_IP1049343_16970_M2" bus1="3807525538462601.1.4" phases=1 conn=Wye model=2 kv=0.219 kw = 0.1751788 pf=0.92 status=variable vmaxpu=1.5 vminpu=0.93 daily="IP-Tipo1_DU"
 
New "Load.IP_IP1049344_16971_M1" bus1="3807701538461942.2.4" phases=1 conn=Wye model=1 kv=0.219 kw = 0.1751788 pf=0.92 status=variable vmaxpu=1.5 vminpu=0.93 daily="IP-Tipo1_DU" 
New "Load.IP_IP1049344_16971_M2" bus1="3807701538461942.2.4" phases=1 conn=Wye model=2 kv=0.219 kw = 0.1751788 pf=0.92 status=variable vmaxpu=1.5 vminpu=0.93 daily="IP-Tipo1_DU"
 
New "Load.IP_IP1049347_16972_M1" bus1="3806441338461314.2.4" phases=1 conn=Wye model=1 kv=0.219 kw = 0.1751788 pf=0.92 status=variable vmaxpu=1.5 vminpu=0.93 daily="IP-Tipo1_DU" 
New "Load.IP_IP1049347_16972_M2" bus1="3806441338461314.2.4" phases=1 conn=Wye model=2 kv=0.219 kw = 0.1751788 pf=0.92 status=variable vmaxpu=1.5 vminpu=0.93 daily="IP-Tipo1_DU"
 
New "Load.IP_IP1049348_16973_M1" bus1="3806086338461332.2.4" phases=1 conn=Wye model=1 kv=0.219 kw = 0.1751788 pf=0.92 status=variable vmaxpu=1.5 vminpu=0.93 daily="IP-Tipo1_DU" 
New "Load.IP_IP1049348_16973_M2" bus1="3806086338461332.2.4" phases=1 conn=Wye model=2 kv=0.219 kw = 0.1751788 pf=0.92 status=variable vmaxpu=1.5 vminpu=0.93 daily="IP-Tipo1_DU"
 
New "Load.IP_IP1049361_16979_M1" bus1="3806228938461111.2.4" phases=1 conn=Wye model=1 kv=0.219 kw = 0.1713853 pf=0.92 status=variable vmaxpu=1.5 vminpu=0.93 daily="IP-Tipo1_DU" 
New "Load.IP_IP1049361_16979_M2" bus1="3806228938461111.2.4" phases=1 conn=Wye model=2 kv=0.219 kw = 0.1713853 pf=0.92 status=variable vmaxpu=1.5 vminpu=0.93 daily="IP-Tipo1_DU"
 
New "Load.IP_IP1049363_16980_M1" bus1="3806804138461302.2.4" phases=1 conn=Wye model=1 kv=0.219 kw = 0.1713853 pf=0.92 status=variable vmaxpu=1.5 vminpu=0.93 daily="IP-Tipo1_DU" 
New "Load.IP_IP1049363_16980_M2" bus1="3806804138461302.2.4" phases=1 conn=Wye model=2 kv=0.219 kw = 0.1713853 pf=0.92 status=variable vmaxpu=1.5 vminpu=0.93 daily="IP-Tipo1_DU"
 
New "Load.IP_IP1049365_16981_M1" bus1="3807725438461493.1.4" phases=1 conn=Wye model=1 kv=0.219 kw = 0.1713853 pf=0.92 status=variable vmaxpu=1.5 vminpu=0.93 daily="IP-Tipo1_DU" 
New "Load.IP_IP1049365_16981_M2" bus1="3807725438461493.1.4" phases=1 conn=Wye model=2 kv=0.219 kw = 0.1713853 pf=0.92 status=variable vmaxpu=1.5 vminpu=0.93 daily="IP-Tipo1_DU"
 
New "Load.IP_IP1049367_16982_M1" bus1="3808171938458876.2.4" phases=1 conn=Wye model=1 kv=0.219 kw = 0.1713853 pf=0.92 status=variable vmaxpu=1.5 vminpu=0.93 daily="IP-Tipo1_DU" 
New "Load.IP_IP1049367_16982_M2" bus1="3808171938458876.2.4" phases=1 conn=Wye model=2 kv=0.219 kw = 0.1713853 pf=0.92 status=variable vmaxpu=1.5 vminpu=0.93 daily="IP-Tipo1_DU"
 
New "Load.IP_IP1049369_16983_M1" bus1="3808577238459204.1.4" phases=1 conn=Wye model=1 kv=0.219 kw = 0.1713853 pf=0.92 status=variable vmaxpu=1.5 vminpu=0.93 daily="IP-Tipo1_DU" 
New "Load.IP_IP1049369_16983_M2" bus1="3808577238459204.1.4" phases=1 conn=Wye model=2 kv=0.219 kw = 0.1713853 pf=0.92 status=variable vmaxpu=1.5 vminpu=0.93 daily="IP-Tipo1_DU"
 
New "Load.IP_IP1049373_16984_M1" bus1="3809923938458685.2.4" phases=1 conn=Wye model=1 kv=0.219 kw = 0.1713853 pf=0.92 status=variable vmaxpu=1.5 vminpu=0.93 daily="IP-Tipo1_DU" 
New "Load.IP_IP1049373_16984_M2" bus1="3809923938458685.2.4" phases=1 conn=Wye model=2 kv=0.219 kw = 0.1713853 pf=0.92 status=variable vmaxpu=1.5 vminpu=0.93 daily="IP-Tipo1_DU"
 
New "Load.IP_IP1049375_16985_M1" bus1="3808611838459351.1.4" phases=1 conn=Wye model=1 kv=0.219 kw = 0.1713853 pf=0.92 status=variable vmaxpu=1.5 vminpu=0.93 daily="IP-Tipo1_DU" 
New "Load.IP_IP1049375_16985_M2" bus1="3808611838459351.1.4" phases=1 conn=Wye model=2 kv=0.219 kw = 0.1713853 pf=0.92 status=variable vmaxpu=1.5 vminpu=0.93 daily="IP-Tipo1_DU"
 
New "Load.IP_IP1049380_16987_M1" bus1="3807940238459721.2.4" phases=1 conn=Wye model=1 kv=0.219 kw = 0.1713853 pf=0.92 status=variable vmaxpu=1.5 vminpu=0.93 daily="IP-Tipo1_DU" 
New "Load.IP_IP1049380_16987_M2" bus1="3807940238459721.2.4" phases=1 conn=Wye model=2 kv=0.219 kw = 0.1713853 pf=0.92 status=variable vmaxpu=1.5 vminpu=0.93 daily="IP-Tipo1_DU"
 
New "Load.IP_IP1049381_16988_M1" bus1="3808282638460366.1.4" phases=1 conn=Wye model=1 kv=0.219 kw = 0.1713853 pf=0.92 status=variable vmaxpu=1.5 vminpu=0.93 daily="IP-Tipo1_DU" 
New "Load.IP_IP1049381_16988_M2" bus1="3808282638460366.1.4" phases=1 conn=Wye model=2 kv=0.219 kw = 0.1713853 pf=0.92 status=variable vmaxpu=1.5 vminpu=0.93 daily="IP-Tipo1_DU"
 
New "Load.IP_IP1049382_16989_M1" bus1="3807123338459362.2.4" phases=1 conn=Wye model=1 kv=0.219 kw = 0.1751788 pf=0.92 status=variable vmaxpu=1.5 vminpu=0.93 daily="IP-Tipo1_DU" 
New "Load.IP_IP1049382_16989_M2" bus1="3807123338459362.2.4" phases=1 conn=Wye model=2 kv=0.219 kw = 0.1751788 pf=0.92 status=variable vmaxpu=1.5 vminpu=0.93 daily="IP-Tipo1_DU"
 
New "Load.IP_IP1049383_16990_M1" bus1="3806750438459249.2.4" phases=1 conn=Wye model=1 kv=0.219 kw = 0.1751788 pf=0.92 status=variable vmaxpu=1.5 vminpu=0.93 daily="IP-Tipo1_DU" 
New "Load.IP_IP1049383_16990_M2" bus1="3806750438459249.2.4" phases=1 conn=Wye model=2 kv=0.219 kw = 0.1751788 pf=0.92 status=variable vmaxpu=1.5 vminpu=0.93 daily="IP-Tipo1_DU"
 
New "Load.IP_IP1049384_16991_M1" bus1="3806445738459154.2.4" phases=1 conn=Wye model=1 kv=0.219 kw = 0.1751788 pf=0.92 status=variable vmaxpu=1.5 vminpu=0.93 daily="IP-Tipo1_DU" 
New "Load.IP_IP1049384_16991_M2" bus1="3806445738459154.2.4" phases=1 conn=Wye model=2 kv=0.219 kw = 0.1751788 pf=0.92 status=variable vmaxpu=1.5 vminpu=0.93 daily="IP-Tipo1_DU"
 
New "Load.IP_IP1049388_16992_M1" bus1="3807708338457860.1.4" phases=1 conn=Wye model=1 kv=0.219 kw = 0.1713853 pf=0.92 status=variable vmaxpu=1.5 vminpu=0.93 daily="IP-Tipo1_DU" 
New "Load.IP_IP1049388_16992_M2" bus1="3807708338457860.1.4" phases=1 conn=Wye model=2 kv=0.219 kw = 0.1713853 pf=0.92 status=variable vmaxpu=1.5 vminpu=0.93 daily="IP-Tipo1_DU"
 
New "Load.IP_IP1049389_16993_M1" bus1="3807660638457499.1.4" phases=1 conn=Wye model=1 kv=0.219 kw = 0.1713853 pf=0.92 status=variable vmaxpu=1.5 vminpu=0.93 daily="IP-Tipo1_DU" 
New "Load.IP_IP1049389_16993_M2" bus1="3807660638457499.1.4" phases=1 conn=Wye model=2 kv=0.219 kw = 0.1713853 pf=0.92 status=variable vmaxpu=1.5 vminpu=0.93 daily="IP-Tipo1_DU"
 
New "Load.IP_IP1049391_16994_M1" bus1="3806000338455605.1.4" phases=1 conn=Wye model=1 kv=0.219 kw = 0.1713853 pf=0.92 status=variable vmaxpu=1.5 vminpu=0.93 daily="IP-Tipo1_DU" 
New "Load.IP_IP1049391_16994_M2" bus1="3806000338455605.1.4" phases=1 conn=Wye model=2 kv=0.219 kw = 0.1713853 pf=0.92 status=variable vmaxpu=1.5 vminpu=0.93 daily="IP-Tipo1_DU"
 
New "Load.IP_IP1049393_16995_M1" bus1="3805862138455667.1.4" phases=1 conn=Wye model=1 kv=0.219 kw = 0.1713853 pf=0.92 status=variable vmaxpu=1.5 vminpu=0.93 daily="IP-Tipo1_DU" 
New "Load.IP_IP1049393_16995_M2" bus1="3805862138455667.1.4" phases=1 conn=Wye model=2 kv=0.219 kw = 0.1713853 pf=0.92 status=variable vmaxpu=1.5 vminpu=0.93 daily="IP-Tipo1_DU"
 
New "Load.IP_IP1049396_16996_M1" bus1="3805272838455882.2.4" phases=1 conn=Wye model=1 kv=0.219 kw = 0.1713853 pf=0.92 status=variable vmaxpu=1.5 vminpu=0.93 daily="IP-Tipo1_DU" 
New "Load.IP_IP1049396_16996_M2" bus1="3805272838455882.2.4" phases=1 conn=Wye model=2 kv=0.219 kw = 0.1713853 pf=0.92 status=variable vmaxpu=1.5 vminpu=0.93 daily="IP-Tipo1_DU"
 
New "Load.IP_IP1049398_16997_M1" bus1="3805121638455791.2.4" phases=1 conn=Wye model=1 kv=0.219 kw = 0.1713853 pf=0.92 status=variable vmaxpu=1.5 vminpu=0.93 daily="IP-Tipo1_DU" 
New "Load.IP_IP1049398_16997_M2" bus1="3805121638455791.2.4" phases=1 conn=Wye model=2 kv=0.219 kw = 0.1713853 pf=0.92 status=variable vmaxpu=1.5 vminpu=0.93 daily="IP-Tipo1_DU"
 
New "Load.IP_IP1049399_16998_M1" bus1="3804842338455599.1.4" phases=1 conn=Wye model=1 kv=0.219 kw = 0.1713853 pf=0.92 status=variable vmaxpu=1.5 vminpu=0.93 daily="IP-Tipo1_DU" 
New "Load.IP_IP1049399_16998_M2" bus1="3804842338455599.1.4" phases=1 conn=Wye model=2 kv=0.219 kw = 0.1713853 pf=0.92 status=variable vmaxpu=1.5 vminpu=0.93 daily="IP-Tipo1_DU"
 
New "Load.IP_IP1049401_16999_M1" bus1="3804557938455349.2.4" phases=1 conn=Wye model=1 kv=0.219 kw = 0.1713853 pf=0.92 status=variable vmaxpu=1.5 vminpu=0.93 daily="IP-Tipo1_DU" 
New "Load.IP_IP1049401_16999_M2" bus1="3804557938455349.2.4" phases=1 conn=Wye model=2 kv=0.219 kw = 0.1713853 pf=0.92 status=variable vmaxpu=1.5 vminpu=0.93 daily="IP-Tipo1_DU"
 
New "Load.IP_IP1049834_17123_M1" bus1="3809288638438802.1.4" phases=1 conn=Wye model=1 kv=0.219 kw = 0.1789578 pf=0.92 status=variable vmaxpu=1.5 vminpu=0.93 daily="IP-Tipo1_DU" 
New "Load.IP_IP1049834_17123_M2" bus1="3809288638438802.1.4" phases=1 conn=Wye model=2 kv=0.219 kw = 0.1789578 pf=0.92 status=variable vmaxpu=1.5 vminpu=0.93 daily="IP-Tipo1_DU"
 
New "Load.IP_IP1050067_17189_M1" bus1="3808954338471080.1.4" phases=1 conn=Wye model=1 kv=0.219 kw = 0.1827513 pf=0.92 status=variable vmaxpu=1.5 vminpu=0.93 daily="IP-Tipo1_DU" 
New "Load.IP_IP1050067_17189_M2" bus1="3808954338471080.1.4" phases=1 conn=Wye model=2 kv=0.219 kw = 0.1827513 pf=0.92 status=variable vmaxpu=1.5 vminpu=0.93 daily="IP-Tipo1_DU"
 
New "Load.IP_IP1050177_17210_M1" bus1="3805736238450644.1.4" phases=1 conn=Wye model=1 kv=0.219 kw = 0.1827513 pf=0.92 status=variable vmaxpu=1.5 vminpu=0.93 daily="IP-Tipo1_DU" 
New "Load.IP_IP1050177_17210_M2" bus1="3805736238450644.1.4" phases=1 conn=Wye model=2 kv=0.219 kw = 0.1827513 pf=0.92 status=variable vmaxpu=1.5 vminpu=0.93 daily="IP-Tipo1_DU"
 
New "Load.IP_IP1050180_17211_M1" bus1="3804964438444565.1.4" phases=1 conn=Wye model=1 kv=0.219 kw = 0.1827513 pf=0.92 status=variable vmaxpu=1.5 vminpu=0.93 daily="IP-Tipo1_DU" 
New "Load.IP_IP1050180_17211_M2" bus1="3804964438444565.1.4" phases=1 conn=Wye model=2 kv=0.219 kw = 0.1827513 pf=0.92 status=variable vmaxpu=1.5 vminpu=0.93 daily="IP-Tipo1_DU"
 
New "Load.IP_IP1050215_17219_M1" bus1="3805765338451036.1.4" phases=1 conn=Wye model=1 kv=0.219 kw = 0.1827513 pf=0.92 status=variable vmaxpu=1.5 vminpu=0.93 daily="IP-Tipo1_DU" 
New "Load.IP_IP1050215_17219_M2" bus1="3805765338451036.1.4" phases=1 conn=Wye model=2 kv=0.219 kw = 0.1827513 pf=0.92 status=variable vmaxpu=1.5 vminpu=0.93 daily="IP-Tipo1_DU"
 
New "Load.IP_IP1050220_17220_M1" bus1="3812031538425671.1.4" phases=1 conn=Wye model=1 kv=0.219 kw = 0.1827513 pf=0.92 status=variable vmaxpu=1.5 vminpu=0.93 daily="IP-Tipo1_DU" 
New "Load.IP_IP1050220_17220_M2" bus1="3812031538425671.1.4" phases=1 conn=Wye model=2 kv=0.219 kw = 0.1827513 pf=0.92 status=variable vmaxpu=1.5 vminpu=0.93 daily="IP-Tipo1_DU"
 
New "Load.IP_IP1050253_17223_M1" bus1="3805152038445864.1.4" phases=1 conn=Wye model=1 kv=0.219 kw = 0.1827513 pf=0.92 status=variable vmaxpu=1.5 vminpu=0.93 daily="IP-Tipo1_DU" 
New "Load.IP_IP1050253_17223_M2" bus1="3805152038445864.1.4" phases=1 conn=Wye model=2 kv=0.219 kw = 0.1827513 pf=0.92 status=variable vmaxpu=1.5 vminpu=0.93 daily="IP-Tipo1_DU"
 
New "Load.IP_IP1050271_17228_M1" bus1="3805797338451424.1.4" phases=1 conn=Wye model=1 kv=0.219 kw = 0.1827513 pf=0.92 status=variable vmaxpu=1.5 vminpu=0.93 daily="IP-Tipo1_DU" 
New "Load.IP_IP1050271_17228_M2" bus1="3805797338451424.1.4" phases=1 conn=Wye model=2 kv=0.219 kw = 0.1827513 pf=0.92 status=variable vmaxpu=1.5 vminpu=0.93 daily="IP-Tipo1_DU"
 
New "Load.IP_IP1050275_17229_M1" bus1="3811717038425057.1.4" phases=1 conn=Wye model=1 kv=0.219 kw = 0.1827513 pf=0.92 status=variable vmaxpu=1.5 vminpu=0.93 daily="IP-Tipo1_DU" 
New "Load.IP_IP1050275_17229_M2" bus1="3811717038425057.1.4" phases=1 conn=Wye model=2 kv=0.219 kw = 0.1827513 pf=0.92 status=variable vmaxpu=1.5 vminpu=0.93 daily="IP-Tipo1_DU"
 
New "Load.IP_IP1050327_17243_M1" bus1="3805796938450250.1.4" phases=1 conn=Wye model=1 kv=0.219 kw = 0.1827513 pf=0.92 status=variable vmaxpu=1.5 vminpu=0.93 daily="IP-Tipo1_DU" 
New "Load.IP_IP1050327_17243_M2" bus1="3805796938450250.1.4" phases=1 conn=Wye model=2 kv=0.219 kw = 0.1827513 pf=0.92 status=variable vmaxpu=1.5 vminpu=0.93 daily="IP-Tipo1_DU"
 
New "Load.IP_IP1050346_17247_M1" bus1="3805417738447580.1.4" phases=1 conn=Wye model=1 kv=0.219 kw = 0.1827513 pf=0.92 status=variable vmaxpu=1.5 vminpu=0.93 daily="IP-Tipo1_DU" 
New "Load.IP_IP1050346_17247_M2" bus1="3805417738447580.1.4" phases=1 conn=Wye model=2 kv=0.219 kw = 0.1827513 pf=0.92 status=variable vmaxpu=1.5 vminpu=0.93 daily="IP-Tipo1_DU"
 
New "Load.IP_IP1050359_17251_M1" bus1="3805756038449823.1.4" phases=1 conn=Wye model=1 kv=0.219 kw = 0.1827513 pf=0.92 status=variable vmaxpu=1.5 vminpu=0.93 daily="IP-Tipo1_DU" 
New "Load.IP_IP1050359_17251_M2" bus1="3805756038449823.1.4" phases=1 conn=Wye model=2 kv=0.219 kw = 0.1827513 pf=0.92 status=variable vmaxpu=1.5 vminpu=0.93 daily="IP-Tipo1_DU"
 
New "Load.IP_IP1050374_17253_M1" bus1="3805743538449621.1.4" phases=1 conn=Wye model=1 kv=0.219 kw = 0.1827513 pf=0.92 status=variable vmaxpu=1.5 vminpu=0.93 daily="IP-Tipo1_DU" 
New "Load.IP_IP1050374_17253_M2" bus1="3805743538449621.1.4" phases=1 conn=Wye model=2 kv=0.219 kw = 0.1827513 pf=0.92 status=variable vmaxpu=1.5 vminpu=0.93 daily="IP-Tipo1_DU"
 
New "Load.IP_IP1050390_17255_M1" bus1="3805863138449353.2.4" phases=1 conn=Wye model=1 kv=0.219 kw = 0.1827513 pf=0.92 status=variable vmaxpu=1.5 vminpu=0.93 daily="IP-Tipo1_DU" 
New "Load.IP_IP1050390_17255_M2" bus1="3805863138449353.2.4" phases=1 conn=Wye model=2 kv=0.219 kw = 0.1827513 pf=0.92 status=variable vmaxpu=1.5 vminpu=0.93 daily="IP-Tipo1_DU"
 
New "Load.IP_IP1050408_17259_M1" bus1="3805720538449474.1.4" phases=1 conn=Wye model=1 kv=0.219 kw = 0.1827513 pf=0.92 status=variable vmaxpu=1.5 vminpu=0.93 daily="IP-Tipo1_DU" 
New "Load.IP_IP1050408_17259_M2" bus1="3805720538449474.1.4" phases=1 conn=Wye model=2 kv=0.219 kw = 0.1827513 pf=0.92 status=variable vmaxpu=1.5 vminpu=0.93 daily="IP-Tipo1_DU"
 
New "Load.IP_IP1050423_17261_M1" bus1="3806104438449174.1.4" phases=1 conn=Wye model=1 kv=0.219 kw = 0.1827513 pf=0.92 status=variable vmaxpu=1.5 vminpu=0.93 daily="IP-Tipo1_DU" 
New "Load.IP_IP1050423_17261_M2" bus1="3806104438449174.1.4" phases=1 conn=Wye model=2 kv=0.219 kw = 0.1827513 pf=0.92 status=variable vmaxpu=1.5 vminpu=0.93 daily="IP-Tipo1_DU"
 
New "Load.IP_IP1050445_17263_M1" bus1="3806043038448916.2.4" phases=1 conn=Wye model=1 kv=0.219 kw = 0.1827513 pf=0.92 status=variable vmaxpu=1.5 vminpu=0.93 daily="IP-Tipo1_DU" 
New "Load.IP_IP1050445_17263_M2" bus1="3806043038448916.2.4" phases=1 conn=Wye model=2 kv=0.219 kw = 0.1827513 pf=0.92 status=variable vmaxpu=1.5 vminpu=0.93 daily="IP-Tipo1_DU"
 
New "Load.IP_IP1050472_17265_M1" bus1="3809643138436563.1.4" phases=1 conn=Wye model=1 kv=0.219 kw = 0.1827513 pf=0.92 status=variable vmaxpu=1.5 vminpu=0.93 daily="IP-Tipo1_DU" 
New "Load.IP_IP1050472_17265_M2" bus1="3809643138436563.1.4" phases=1 conn=Wye model=2 kv=0.219 kw = 0.1827513 pf=0.92 status=variable vmaxpu=1.5 vminpu=0.93 daily="IP-Tipo1_DU"
 
New "Load.IP_IP1050478_17267_M1" bus1="3811853838426769.2.4" phases=1 conn=Wye model=1 kv=0.219 kw = 0.1789578 pf=0.92 status=variable vmaxpu=1.5 vminpu=0.93 daily="IP-Tipo1_DU" 
New "Load.IP_IP1050478_17267_M2" bus1="3811853838426769.2.4" phases=1 conn=Wye model=2 kv=0.219 kw = 0.1789578 pf=0.92 status=variable vmaxpu=1.5 vminpu=0.93 daily="IP-Tipo1_DU"
 
New "Load.IP_IP1050480_17268_M1" bus1="3805966038448604.1.4" phases=1 conn=Wye model=1 kv=0.219 kw = 0.1827513 pf=0.92 status=variable vmaxpu=1.5 vminpu=0.93 daily="IP-Tipo1_DU" 
New "Load.IP_IP1050480_17268_M2" bus1="3805966038448604.1.4" phases=1 conn=Wye model=2 kv=0.219 kw = 0.1827513 pf=0.92 status=variable vmaxpu=1.5 vminpu=0.93 daily="IP-Tipo1_DU"
 
New "Load.IP_IP1050481_17269_M1" bus1="3811651938424174.1.4" phases=1 conn=Wye model=1 kv=0.219 kw = 0.1751788 pf=0.92 status=variable vmaxpu=1.5 vminpu=0.93 daily="IP-Tipo1_DU" 
New "Load.IP_IP1050481_17269_M2" bus1="3811651938424174.1.4" phases=1 conn=Wye model=2 kv=0.219 kw = 0.1751788 pf=0.92 status=variable vmaxpu=1.5 vminpu=0.93 daily="IP-Tipo1_DU"
 
New "Load.IP_IP1050501_17271_M1" bus1="3810016838435889.1.4" phases=1 conn=Wye model=1 kv=0.219 kw = 0.1827513 pf=0.92 status=variable vmaxpu=1.5 vminpu=0.93 daily="IP-Tipo1_DU" 
New "Load.IP_IP1050501_17271_M2" bus1="3810016838435889.1.4" phases=1 conn=Wye model=2 kv=0.219 kw = 0.1827513 pf=0.92 status=variable vmaxpu=1.5 vminpu=0.93 daily="IP-Tipo1_DU"
 
New "Load.IP_IP1050509_17272_M1" bus1="3809408538437980.1.4" phases=1 conn=Wye model=1 kv=0.219 kw = 0.1827513 pf=0.92 status=variable vmaxpu=1.5 vminpu=0.93 daily="IP-Tipo1_DU" 
New "Load.IP_IP1050509_17272_M2" bus1="3809408538437980.1.4" phases=1 conn=Wye model=2 kv=0.219 kw = 0.1827513 pf=0.92 status=variable vmaxpu=1.5 vminpu=0.93 daily="IP-Tipo1_DU"
 
New "Load.IP_IP1050533_17276_M1" bus1="3809595438436779.1.4" phases=1 conn=Wye model=1 kv=0.219 kw = 0.1827513 pf=0.92 status=variable vmaxpu=1.5 vminpu=0.93 daily="IP-Tipo1_DU" 
New "Load.IP_IP1050533_17276_M2" bus1="3809595438436779.1.4" phases=1 conn=Wye model=2 kv=0.219 kw = 0.1827513 pf=0.92 status=variable vmaxpu=1.5 vminpu=0.93 daily="IP-Tipo1_DU"
 
New "Load.IP_IP1050581_17281_M1" bus1="3810208538432773.1.4" phases=1 conn=Wye model=1 kv=0.219 kw = 0.1827513 pf=0.92 status=variable vmaxpu=1.5 vminpu=0.93 daily="IP-Tipo1_DU" 
New "Load.IP_IP1050581_17281_M2" bus1="3810208538432773.1.4" phases=1 conn=Wye model=2 kv=0.219 kw = 0.1827513 pf=0.92 status=variable vmaxpu=1.5 vminpu=0.93 daily="IP-Tipo1_DU"
 
New "Load.IP_IP1051014_17338_M1" bus1="3809903338465380.1.4" phases=1 conn=Wye model=1 kv=0.219 kw = 0.1713853 pf=0.92 status=variable vmaxpu=1.5 vminpu=0.93 daily="IP-Tipo1_DU" 
New "Load.IP_IP1051014_17338_M2" bus1="3809903338465380.1.4" phases=1 conn=Wye model=2 kv=0.219 kw = 0.1713853 pf=0.92 status=variable vmaxpu=1.5 vminpu=0.93 daily="IP-Tipo1_DU"
 
New "Load.IP_IP1051019_17340_M1" bus1="3809625638464172.1.4" phases=1 conn=Wye model=1 kv=0.219 kw = 0.1713853 pf=0.92 status=variable vmaxpu=1.5 vminpu=0.93 daily="IP-Tipo1_DU" 
New "Load.IP_IP1051019_17340_M2" bus1="3809625638464172.1.4" phases=1 conn=Wye model=2 kv=0.219 kw = 0.1713853 pf=0.92 status=variable vmaxpu=1.5 vminpu=0.93 daily="IP-Tipo1_DU"
 
New "Load.IP_IP1051105_17368_M1" bus1="3810226538465575.1.4" phases=1 conn=Wye model=1 kv=0.219 kw = 0.1713853 pf=0.92 status=variable vmaxpu=1.5 vminpu=0.93 daily="IP-Tipo1_DU" 
New "Load.IP_IP1051105_17368_M2" bus1="3810226538465575.1.4" phases=1 conn=Wye model=2 kv=0.219 kw = 0.1713853 pf=0.92 status=variable vmaxpu=1.5 vminpu=0.93 daily="IP-Tipo1_DU"
 
New "Load.IP_IP1051183_17391_M1" bus1="3811080838466950.1.4" phases=1 conn=Wye model=1 kv=0.219 kw = 0.1751788 pf=0.92 status=variable vmaxpu=1.5 vminpu=0.93 daily="IP-Tipo1_DU" 
New "Load.IP_IP1051183_17391_M2" bus1="3811080838466950.1.4" phases=1 conn=Wye model=2 kv=0.219 kw = 0.1751788 pf=0.92 status=variable vmaxpu=1.5 vminpu=0.93 daily="IP-Tipo1_DU"
 
New "Load.IP_IP1051190_17393_M1" bus1="3812099938425321.2.4" phases=1 conn=Wye model=1 kv=0.219 kw = 0.1751788 pf=0.92 status=variable vmaxpu=1.5 vminpu=0.93 daily="IP-Tipo1_DU" 
New "Load.IP_IP1051190_17393_M2" bus1="3812099938425321.2.4" phases=1 conn=Wye model=2 kv=0.219 kw = 0.1751788 pf=0.92 status=variable vmaxpu=1.5 vminpu=0.93 daily="IP-Tipo1_DU"
 
New "Load.IP_IP1051208_17398_M1" bus1="3810557338465782.1.4" phases=1 conn=Wye model=1 kv=0.219 kw = 0.1713853 pf=0.92 status=variable vmaxpu=1.5 vminpu=0.93 daily="IP-Tipo1_DU" 
New "Load.IP_IP1051208_17398_M2" bus1="3810557338465782.1.4" phases=1 conn=Wye model=2 kv=0.219 kw = 0.1713853 pf=0.92 status=variable vmaxpu=1.5 vminpu=0.93 daily="IP-Tipo1_DU"
 
New "Load.IP_IP1051225_17403_M1" bus1="3809905938468586.1.4" phases=1 conn=Wye model=1 kv=0.219 kw = 0.1713853 pf=0.92 status=variable vmaxpu=1.5 vminpu=0.93 daily="IP-Tipo1_DU" 
New "Load.IP_IP1051225_17403_M2" bus1="3809905938468586.1.4" phases=1 conn=Wye model=2 kv=0.219 kw = 0.1713853 pf=0.92 status=variable vmaxpu=1.5 vminpu=0.93 daily="IP-Tipo1_DU"
 
New "Load.IP_IP1051296_17423_M1" bus1="3809811138427806.1.4" phases=1 conn=Wye model=1 kv=0.219 kw = 0.1713853 pf=0.92 status=variable vmaxpu=1.5 vminpu=0.93 daily="IP-Tipo1_DU" 
New "Load.IP_IP1051296_17423_M2" bus1="3809811138427806.1.4" phases=1 conn=Wye model=2 kv=0.219 kw = 0.1713853 pf=0.92 status=variable vmaxpu=1.5 vminpu=0.93 daily="IP-Tipo1_DU"
 
New "Load.IP_IP1051309_17428_M1" bus1="3811170838466131.1.4" phases=1 conn=Wye model=1 kv=0.219 kw = 0.1713853 pf=0.92 status=variable vmaxpu=1.5 vminpu=0.93 daily="IP-Tipo1_DU" 
New "Load.IP_IP1051309_17428_M2" bus1="3811170838466131.1.4" phases=1 conn=Wye model=2 kv=0.219 kw = 0.1713853 pf=0.92 status=variable vmaxpu=1.5 vminpu=0.93 daily="IP-Tipo1_DU"
 
New "Load.IP_IP1051319_17431_M1" bus1="3809885638464292.1.4" phases=1 conn=Wye model=1 kv=0.219 kw = 0.1713853 pf=0.92 status=variable vmaxpu=1.5 vminpu=0.93 daily="IP-Tipo1_DU" 
New "Load.IP_IP1051319_17431_M2" bus1="3809885638464292.1.4" phases=1 conn=Wye model=2 kv=0.219 kw = 0.1713853 pf=0.92 status=variable vmaxpu=1.5 vminpu=0.93 daily="IP-Tipo1_DU"
 
New "Load.IP_IP1051417_17466_M1" bus1="3809320938464015.1.4" phases=1 conn=Wye model=1 kv=0.219 kw = 0.1713853 pf=0.92 status=variable vmaxpu=1.5 vminpu=0.93 daily="IP-Tipo1_DU" 
New "Load.IP_IP1051417_17466_M2" bus1="3809320938464015.1.4" phases=1 conn=Wye model=2 kv=0.219 kw = 0.1713853 pf=0.92 status=variable vmaxpu=1.5 vminpu=0.93 daily="IP-Tipo1_DU"
 
New "Load.IP_IP1051481_17486_M1" bus1="3812680038425768.1.4" phases=1 conn=Wye model=1 kv=0.219 kw = 0.1713853 pf=0.92 status=variable vmaxpu=1.5 vminpu=0.93 daily="IP-Tipo1_DU" 
New "Load.IP_IP1051481_17486_M2" bus1="3812680038425768.1.4" phases=1 conn=Wye model=2 kv=0.219 kw = 0.1713853 pf=0.92 status=variable vmaxpu=1.5 vminpu=0.93 daily="IP-Tipo1_DU"
 
New "Load.IP_IP1051487_17491_M1" bus1="3812886338436724.1.4" phases=1 conn=Wye model=1 kv=0.219 kw = 0.1789578 pf=0.92 status=variable vmaxpu=1.5 vminpu=0.93 daily="IP-Tipo1_DU" 
New "Load.IP_IP1051487_17491_M2" bus1="3812886338436724.1.4" phases=1 conn=Wye model=2 kv=0.219 kw = 0.1789578 pf=0.92 status=variable vmaxpu=1.5 vminpu=0.93 daily="IP-Tipo1_DU"
 
New "Load.IP_IP1051500_17495_M1" bus1="3810712438465530.2.4" phases=1 conn=Wye model=1 kv=0.219 kw = 0.1713853 pf=0.92 status=variable vmaxpu=1.5 vminpu=0.93 daily="IP-Tipo1_DU" 
New "Load.IP_IP1051500_17495_M2" bus1="3810712438465530.2.4" phases=1 conn=Wye model=2 kv=0.219 kw = 0.1713853 pf=0.92 status=variable vmaxpu=1.5 vminpu=0.93 daily="IP-Tipo1_DU"
 
New "Load.IP_IP1051561_17516_M1" bus1="3811523838467187.1.4" phases=1 conn=Wye model=1 kv=0.219 kw = 0.1751788 pf=0.92 status=variable vmaxpu=1.5 vminpu=0.93 daily="IP-Tipo1_DU" 
New "Load.IP_IP1051561_17516_M2" bus1="3811523838467187.1.4" phases=1 conn=Wye model=2 kv=0.219 kw = 0.1751788 pf=0.92 status=variable vmaxpu=1.5 vminpu=0.93 daily="IP-Tipo1_DU"
 
New "Load.IP_IP1051659_17545_M1" bus1="3813245238436431.1.4" phases=1 conn=Wye model=1 kv=0.219 kw = 0.1789578 pf=0.92 status=variable vmaxpu=1.5 vminpu=0.93 daily="IP-Tipo1_DU" 
New "Load.IP_IP1051659_17545_M2" bus1="3813245238436431.1.4" phases=1 conn=Wye model=2 kv=0.219 kw = 0.1789578 pf=0.92 status=variable vmaxpu=1.5 vminpu=0.93 daily="IP-Tipo1_DU"
 
New "Load.IP_IP1051723_17568_M1" bus1="3812155438466615.1.4" phases=1 conn=Wye model=1 kv=0.219 kw = 0.1713853 pf=0.92 status=variable vmaxpu=1.5 vminpu=0.93 daily="IP-Tipo1_DU" 
New "Load.IP_IP1051723_17568_M2" bus1="3812155438466615.1.4" phases=1 conn=Wye model=2 kv=0.219 kw = 0.1713853 pf=0.92 status=variable vmaxpu=1.5 vminpu=0.93 daily="IP-Tipo1_DU"
 
New "Load.IP_IP1051729_17570_M1" bus1="3812619838426067.2.4" phases=1 conn=Wye model=1 kv=0.219 kw = 0.1713853 pf=0.92 status=variable vmaxpu=1.5 vminpu=0.93 daily="IP-Tipo1_DU" 
New "Load.IP_IP1051729_17570_M2" bus1="3812619838426067.2.4" phases=1 conn=Wye model=2 kv=0.219 kw = 0.1713853 pf=0.92 status=variable vmaxpu=1.5 vminpu=0.93 daily="IP-Tipo1_DU"
 
New "Load.IP_IP1051751_17579_M1" bus1="3809393538463730.1.4" phases=1 conn=Wye model=1 kv=0.219 kw = 0.1713853 pf=0.92 status=variable vmaxpu=1.5 vminpu=0.93 daily="IP-Tipo1_DU" 
New "Load.IP_IP1051751_17579_M2" bus1="3809393538463730.1.4" phases=1 conn=Wye model=2 kv=0.219 kw = 0.1713853 pf=0.92 status=variable vmaxpu=1.5 vminpu=0.93 daily="IP-Tipo1_DU"
 
New "Load.IP_IP1051814_17601_M1" bus1="3809971338466202.1.4" phases=1 conn=Wye model=1 kv=0.219 kw = 0.1751788 pf=0.92 status=variable vmaxpu=1.5 vminpu=0.93 daily="IP-Tipo1_DU" 
New "Load.IP_IP1051814_17601_M2" bus1="3809971338466202.1.4" phases=1 conn=Wye model=2 kv=0.219 kw = 0.1751788 pf=0.92 status=variable vmaxpu=1.5 vminpu=0.93 daily="IP-Tipo1_DU"
 
New "Load.IP_IP1051821_17604_M1" bus1="3808877338463798.1.4" phases=1 conn=Wye model=1 kv=0.219 kw = 0.1713853 pf=0.92 status=variable vmaxpu=1.5 vminpu=0.93 daily="IP-Tipo1_DU" 
New "Load.IP_IP1051821_17604_M2" bus1="3808877338463798.1.4" phases=1 conn=Wye model=2 kv=0.219 kw = 0.1713853 pf=0.92 status=variable vmaxpu=1.5 vminpu=0.93 daily="IP-Tipo1_DU"
 
New "Load.IP_IP1051868_17616_M1" bus1="3811906238426422.2.4" phases=1 conn=Wye model=1 kv=0.219 kw = 0.1713853 pf=0.92 status=variable vmaxpu=1.5 vminpu=0.93 daily="IP-Tipo1_DU" 
New "Load.IP_IP1051868_17616_M2" bus1="3811906238426422.2.4" phases=1 conn=Wye model=2 kv=0.219 kw = 0.1713853 pf=0.92 status=variable vmaxpu=1.5 vminpu=0.93 daily="IP-Tipo1_DU"
 
New "Load.IP_IP1051885_17623_M1" bus1="3809585438465970.2.4" phases=1 conn=Wye model=1 kv=0.219 kw = 0.1751788 pf=0.92 status=variable vmaxpu=1.5 vminpu=0.93 daily="IP-Tipo1_DU" 
New "Load.IP_IP1051885_17623_M2" bus1="3809585438465970.2.4" phases=1 conn=Wye model=2 kv=0.219 kw = 0.1751788 pf=0.92 status=variable vmaxpu=1.5 vminpu=0.93 daily="IP-Tipo1_DU"
 
New "Load.IP_IP1051914_17634_M1" bus1="3806642138441401.1.4" phases=1 conn=Wye model=1 kv=0.219 kw = 0.1713853 pf=0.92 status=variable vmaxpu=1.5 vminpu=0.93 daily="IP-Tipo1_DU" 
New "Load.IP_IP1051914_17634_M2" bus1="3806642138441401.1.4" phases=1 conn=Wye model=2 kv=0.219 kw = 0.1713853 pf=0.92 status=variable vmaxpu=1.5 vminpu=0.93 daily="IP-Tipo1_DU"
 
New "Load.IP_IP1051942_17645_M1" bus1="3812186038436400.1.4" phases=1 conn=Wye model=1 kv=0.219 kw = 0.1713853 pf=0.92 status=variable vmaxpu=1.5 vminpu=0.93 daily="IP-Tipo1_DU" 
New "Load.IP_IP1051942_17645_M2" bus1="3812186038436400.1.4" phases=1 conn=Wye model=2 kv=0.219 kw = 0.1713853 pf=0.92 status=variable vmaxpu=1.5 vminpu=0.93 daily="IP-Tipo1_DU"
 
New "Load.IP_IP1051955_17653_M1" bus1="3809247138465810.1.4" phases=1 conn=Wye model=1 kv=0.219 kw = 0.1751788 pf=0.92 status=variable vmaxpu=1.5 vminpu=0.93 daily="IP-Tipo1_DU" 
New "Load.IP_IP1051955_17653_M2" bus1="3809247138465810.1.4" phases=1 conn=Wye model=2 kv=0.219 kw = 0.1751788 pf=0.92 status=variable vmaxpu=1.5 vminpu=0.93 daily="IP-Tipo1_DU"
 
New "Load.IP_IP1051994_17664_M1" bus1="3808861538471970.1.4" phases=1 conn=Wye model=1 kv=0.219 kw = 0.1713853 pf=0.92 status=variable vmaxpu=1.5 vminpu=0.93 daily="IP-Tipo1_DU" 
New "Load.IP_IP1051994_17664_M2" bus1="3808861538471970.1.4" phases=1 conn=Wye model=2 kv=0.219 kw = 0.1713853 pf=0.92 status=variable vmaxpu=1.5 vminpu=0.93 daily="IP-Tipo1_DU"
 
New "Load.IP_IP1052075_17695_M1" bus1="3808917238465638.1.4" phases=1 conn=Wye model=1 kv=0.219 kw = 0.1713853 pf=0.92 status=variable vmaxpu=1.5 vminpu=0.93 daily="IP-Tipo1_DU" 
New "Load.IP_IP1052075_17695_M2" bus1="3808917238465638.1.4" phases=1 conn=Wye model=2 kv=0.219 kw = 0.1713853 pf=0.92 status=variable vmaxpu=1.5 vminpu=0.93 daily="IP-Tipo1_DU"
 
New "Load.IP_IP1052110_17707_M1" bus1="3811892138466510.1.4" phases=1 conn=Wye model=1 kv=0.219 kw = 0.1713853 pf=0.92 status=variable vmaxpu=1.5 vminpu=0.93 daily="IP-Tipo1_DU" 
New "Load.IP_IP1052110_17707_M2" bus1="3811892138466510.1.4" phases=1 conn=Wye model=2 kv=0.219 kw = 0.1713853 pf=0.92 status=variable vmaxpu=1.5 vminpu=0.93 daily="IP-Tipo1_DU"
 
New "Load.IP_IP1052158_17722_M1" bus1="3811491338466316.1.4" phases=1 conn=Wye model=1 kv=0.219 kw = 0.1713853 pf=0.92 status=variable vmaxpu=1.5 vminpu=0.93 daily="IP-Tipo1_DU" 
New "Load.IP_IP1052158_17722_M2" bus1="3811491338466316.1.4" phases=1 conn=Wye model=2 kv=0.219 kw = 0.1713853 pf=0.92 status=variable vmaxpu=1.5 vminpu=0.93 daily="IP-Tipo1_DU"
 
New "Load.IP_IP1052207_17736_M1" bus1="3810703138426340.1.4" phases=1 conn=Wye model=1 kv=0.219 kw = 0.1713853 pf=0.92 status=variable vmaxpu=1.5 vminpu=0.93 daily="IP-Tipo1_DU" 
New "Load.IP_IP1052207_17736_M2" bus1="3810703138426340.1.4" phases=1 conn=Wye model=2 kv=0.219 kw = 0.1713853 pf=0.92 status=variable vmaxpu=1.5 vminpu=0.93 daily="IP-Tipo1_DU"
 
New "Load.IP_IP1052217_17741_M1" bus1="3809571638465192.1.4" phases=1 conn=Wye model=1 kv=0.219 kw = 0.1713853 pf=0.92 status=variable vmaxpu=1.5 vminpu=0.93 daily="IP-Tipo1_DU" 
New "Load.IP_IP1052217_17741_M2" bus1="3809571638465192.1.4" phases=1 conn=Wye model=2 kv=0.219 kw = 0.1713853 pf=0.92 status=variable vmaxpu=1.5 vminpu=0.93 daily="IP-Tipo1_DU"
 
New "Load.IP_IP1052224_17744_M1" bus1="3809879138468089.1.4" phases=1 conn=Wye model=1 kv=0.219 kw = 0.1713853 pf=0.92 status=variable vmaxpu=1.5 vminpu=0.93 daily="IP-Tipo1_DU" 
New "Load.IP_IP1052224_17744_M2" bus1="3809879138468089.1.4" phases=1 conn=Wye model=2 kv=0.219 kw = 0.1713853 pf=0.92 status=variable vmaxpu=1.5 vminpu=0.93 daily="IP-Tipo1_DU"
 
New "Load.IP_IP1052264_17762_M1" bus1="3809836138467728.2.4" phases=1 conn=Wye model=1 kv=0.219 kw = 0.1713853 pf=0.92 status=variable vmaxpu=1.5 vminpu=0.93 daily="IP-Tipo1_DU" 
New "Load.IP_IP1052264_17762_M2" bus1="3809836138467728.2.4" phases=1 conn=Wye model=2 kv=0.219 kw = 0.1713853 pf=0.92 status=variable vmaxpu=1.5 vminpu=0.93 daily="IP-Tipo1_DU"
 
New "Load.IP_IP1052294_17774_M1" bus1="3809274938465023.1.4" phases=1 conn=Wye model=1 kv=0.219 kw = 0.1713853 pf=0.92 status=variable vmaxpu=1.5 vminpu=0.93 daily="IP-Tipo1_DU" 
New "Load.IP_IP1052294_17774_M2" bus1="3809274938465023.1.4" phases=1 conn=Wye model=2 kv=0.219 kw = 0.1713853 pf=0.92 status=variable vmaxpu=1.5 vminpu=0.93 daily="IP-Tipo1_DU"
 
New "Load.IP_IP1052332_17790_M1" bus1="3809416838464778.2.4" phases=1 conn=Wye model=1 kv=0.219 kw = 0.1713853 pf=0.92 status=variable vmaxpu=1.5 vminpu=0.93 daily="IP-Tipo1_DU" 
New "Load.IP_IP1052332_17790_M2" bus1="3809416838464778.2.4" phases=1 conn=Wye model=2 kv=0.219 kw = 0.1713853 pf=0.92 status=variable vmaxpu=1.5 vminpu=0.93 daily="IP-Tipo1_DU"
 
New "Load.IP_IP1052339_17796_M1" bus1="3810382938469259.1.4" phases=1 conn=Wye model=1 kv=0.219 kw = 0.1751788 pf=0.92 status=variable vmaxpu=1.5 vminpu=0.93 daily="IP-Tipo1_DU" 
New "Load.IP_IP1052339_17796_M2" bus1="3810382938469259.1.4" phases=1 conn=Wye model=2 kv=0.219 kw = 0.1751788 pf=0.92 status=variable vmaxpu=1.5 vminpu=0.93 daily="IP-Tipo1_DU"
 
New "Load.IP_IP1052358_17803_M1" bus1="3813281038432639.2.4" phases=1 conn=Wye model=1 kv=0.219 kw = 0.1713853 pf=0.92 status=variable vmaxpu=1.5 vminpu=0.93 daily="IP-Tipo1_DU" 
New "Load.IP_IP1052358_17803_M2" bus1="3813281038432639.2.4" phases=1 conn=Wye model=2 kv=0.219 kw = 0.1713853 pf=0.92 status=variable vmaxpu=1.5 vminpu=0.93 daily="IP-Tipo1_DU"
 
New "Load.IP_IP1052430_17827_M1" bus1="3808971438471639.1.4" phases=1 conn=Wye model=1 kv=0.219 kw = 0.1713853 pf=0.92 status=variable vmaxpu=1.5 vminpu=0.93 daily="IP-Tipo1_DU" 
New "Load.IP_IP1052430_17827_M2" bus1="3808971438471639.1.4" phases=1 conn=Wye model=2 kv=0.219 kw = 0.1713853 pf=0.92 status=variable vmaxpu=1.5 vminpu=0.93 daily="IP-Tipo1_DU"
 
New "Load.IP_IP1052453_17835_M1" bus1="3810053738470229.2.4" phases=1 conn=Wye model=1 kv=0.219 kw = 0.1713853 pf=0.92 status=variable vmaxpu=1.5 vminpu=0.93 daily="IP-Tipo1_DU" 
New "Load.IP_IP1052453_17835_M2" bus1="3810053738470229.2.4" phases=1 conn=Wye model=2 kv=0.219 kw = 0.1713853 pf=0.92 status=variable vmaxpu=1.5 vminpu=0.93 daily="IP-Tipo1_DU"
 
New "Load.IP_IP1052487_17848_M1" bus1="3810421538470157.1.4" phases=1 conn=Wye model=1 kv=0.219 kw = 0.1713853 pf=0.92 status=variable vmaxpu=1.5 vminpu=0.93 daily="IP-Tipo1_DU" 
New "Load.IP_IP1052487_17848_M2" bus1="3810421538470157.1.4" phases=1 conn=Wye model=2 kv=0.219 kw = 0.1713853 pf=0.92 status=variable vmaxpu=1.5 vminpu=0.93 daily="IP-Tipo1_DU"
 
New "Load.IP_IP1052563_17878_M1" bus1="3810414438426333.2.4" phases=1 conn=Wye model=1 kv=0.219 kw = 0.1713853 pf=0.92 status=variable vmaxpu=1.5 vminpu=0.93 daily="IP-Tipo1_DU" 
New "Load.IP_IP1052563_17878_M2" bus1="3810414438426333.2.4" phases=1 conn=Wye model=2 kv=0.219 kw = 0.1713853 pf=0.92 status=variable vmaxpu=1.5 vminpu=0.93 daily="IP-Tipo1_DU"
 
New "Load.IP_IP1052565_17879_M1" bus1="3809370138471103.1.4" phases=1 conn=Wye model=1 kv=0.219 kw = 0.1713853 pf=0.92 status=variable vmaxpu=1.5 vminpu=0.93 daily="IP-Tipo1_DU" 
New "Load.IP_IP1052565_17879_M2" bus1="3809370138471103.1.4" phases=1 conn=Wye model=2 kv=0.219 kw = 0.1713853 pf=0.92 status=variable vmaxpu=1.5 vminpu=0.93 daily="IP-Tipo1_DU"
 
New "Load.IP_IP1052602_17894_M1" bus1="3810993938427550.1.4" phases=1 conn=Wye model=1 kv=0.219 kw = 0.1713853 pf=0.92 status=variable vmaxpu=1.5 vminpu=0.93 daily="IP-Tipo1_DU" 
New "Load.IP_IP1052602_17894_M2" bus1="3810993938427550.1.4" phases=1 conn=Wye model=2 kv=0.219 kw = 0.1713853 pf=0.92 status=variable vmaxpu=1.5 vminpu=0.93 daily="IP-Tipo1_DU"
 
...