output/AGF01I2/Cargas_MT_DU02_AGF01I2.dss
New "Load.MT_272082407_514_M1" bus1="3807683938468333.1.2.3" phases=3 conn=Delta model=1 kv=13.8 kw = 0.0000000 pf=0.92 status=variable vmaxpu=1.5 vminpu=0.93 daily="MT-Tipo01_DU" 
New "Load.MT_272082407_514_M2" bus1="3807683938468333.1.2.3" phases=3 conn=Delta model=2 kv=13.8 kw = 0.0000000 pf=0.92 status=variable vmaxpu=1.5 vminpu=0.93 daily="MT-Tipo01_DU"
 
New "Load.MT_5110831_729_M1" bus1="3807649838468837.1.2.3" phases=3 conn=Delta model=1 kv=13.8 kw = 58.9934009 pf=0.92 status=variable vmaxpu=1.5 vminpu=0.93 daily="MT-Tipo01_DU" 
New "Load.MT_5110831_729_M2" bus1="3807649838468837.1.2.3" phases=3 conn=Delta model=2 kv=13.8 kw = 58.9934009 pf=0.92 status=variable vmaxpu=1.5 vminpu=0.93 daily="MT-Tipo01_DU"
 
New "Load.MT_5372950_1972_M1" bus1="3816921938450562.1.2.3" phases=3 conn=Delta model=1 kv=13.8 kw = 38.6373817 pf=0.92 status=variable vmaxpu=1.5 vminpu=0.93 daily="MT-Tipo01_DU" 
New "Load.MT_5372950_1972_M2" bus1="3816921938450562.1.2.3" phases=3 conn=Delta model=2 kv=13.8 kw = 38.6373817 pf=0.92 status=variable vmaxpu=1.5 vminpu=0.93 daily="MT-Tipo01_DU"
 
New "Load.MT_5106271_2012_M1" bus1="3807683938468333.1.2.3" phases=3 conn=Delta model=1 kv=13.8 kw = 19.2401680 pf=0.92 status=variable vmaxpu=1.5 vminpu=0.93 daily="MT-Tipo01_DU" 
New "Load.MT_5106271_2012_M2" bus1="3807683938468333.1.2.3" phases=3 conn=Delta model=2 kv=13.8 kw = 19.2401680 pf=0.92 status=variable vmaxpu=1.5 vminpu=0.93 daily="MT-Tipo01_DU"
 
New "Load.MT_209813_2024_M1" bus1="3809956538434714.1.2.3" phases=3 conn=Delta model=1 kv=13.8 kw = 1025.4702734 pf=0.92 status=variable vmaxpu=1.5 vminpu=0.93 daily="MT-Tipo06_DU" 
New "Load.MT_209813_2024_M2" bus1="3809956538434714.1.2.3" phases=3 conn=Delta model=2 kv=13.8 kw = 1025.4702734 pf=0.92 status=variable vmaxpu=1.5 vminpu=0.93 daily="MT-Tipo06_DU"
 
New "Load.MT_207388_2369_M1" bus1="3812041438424087.1.2.3" phases=3 conn=Delta model=1 kv=13.8 kw = 70.2800293 pf=0.92 status=variable vmaxpu=1.5 vminpu=0.93 daily="MT-Tipo01_DU" 
New "Load.MT_207388_2369_M2" bus1="3812041438424087.1.2.3" phases=3 conn=Delta model=2 kv=13.8 kw = 70.2800293 pf=0.92 status=variable vmaxpu=1.5 vminpu=0.93 daily="MT-Tipo01_DU"
 
New "Load.MT_1128460_2731_M1" bus1="3826472438457956.1.2.3" phases=3 conn=Delta model=1 kv=13.8 kw = 3.0892548 pf=0.92 status=variable vmaxpu=1.5 vminpu=0.93 daily="MT-Tipo01_DU" 
New "Load.MT_1128460_2731_M2" bus1="3826472438457956.1.2.3" phases=3 conn=Delta model=2 kv=13.8 kw = 3.0892548 pf=0.92 status=variable vmaxpu=1.5 vminpu=0.93 daily="MT-Tipo01_DU"
 
New "Load.MT_1128460_2892_M1" bus1="3831989438461958.1.2.3" phases=3 conn=Delta model=1 kv=13.8 kw = 103.1700931 pf=0.92 status=variable vmaxpu=1.5 vminpu=0.93 daily="MT-Tipo02_DU" 
New "Load.MT_1128460_2892_M2" bus1="3831989438461958.1.2.3" phases=3 conn=Delta model=2 kv=13.8 kw = 103.1700931 pf=0.92 status=variable vmaxpu=1.5 vminpu=0.93 daily="MT-Tipo02_DU"
 
New "Load.MT_272298469_3326_M1" bus1="3815318638437023.1.2.3" phases=3 conn=Delta model=1 kv=13.8 kw = 20.1039195 pf=0.92 status=variable vmaxpu=1.5 vminpu=0.93 daily="MT-Tipo01_DU" 
New "Load.MT_272298469_3326_M2" bus1="3815318638437023.1.2.3" phases=3 conn=Delta model=2 kv=13.8 kw = 20.1039195 pf=0.92 status=variable vmaxpu=1.5 vminpu=0.93 daily="MT-Tipo01_DU"
 
New "Load.MT_45628173_4018_M1" bus1="3814817738425861.1.2.3" phases=3 conn=Delta model=1 kv=13.8 kw = 58.1645911 pf=0.92 status=variable vmaxpu=1.5 vminpu=0.93 daily="MT-Tipo02_DU" 
New "Load.MT_45628173_4018_M2" bus1="3814817738425861.1.2.3" phases=3 conn=Delta model=2 kv=13.8 kw = 58.1645911 pf=0.92 status=variable vmaxpu=1.5 vminpu=0.93 daily="MT-Tipo02_DU"
 
New "Load.MT_5100589_4258_M1" bus1="3792505638471637.1.2.3" phases=3 conn=Delta model=1 kv=13.8 kw = 25.8980803 pf=0.92 status=variable vmaxpu=1.5 vminpu=0.93 daily="MT-Tipo01_DU" 
New "Load.MT_5100589_4258_M2" bus1="3792505638471637.1.2.3" phases=3 conn=Delta model=2 kv=13.8 kw = 25.8980803 pf=0.92 status=variable vmaxpu=1.5 vminpu=0.93 daily="MT-Tipo01_DU"
 
New "Load.MT_272128191_4281_M1" bus1="3809956538434714.1.2.3" phases=3 conn=Delta model=1 kv=13.8 kw = 0.0000000 pf=0.92 status=variable vmaxpu=1.5 vminpu=0.93 daily="MT-Tipo04_DU" 
New "Load.MT_272128191_4281_M2" bus1="3809956538434714.1.2.3" phases=3 conn=Delta model=2 kv=13.8 kw = 0.0000000 pf=0.92 status=variable vmaxpu=1.5 vminpu=0.93 daily="MT-Tipo04_DU"
 
New "Load.MT_5108571_4354_M1" bus1="3811489438424733.1.2.3" phases=3 conn=Delta model=1 kv=13.8 kw = 20.2526996 pf=0.92 status=variable vmaxpu=1.5 vminpu=0.93 daily="MT-Tipo01_DU" 
New "Load.MT_5108571_4354_M2" bus1="3811489438424733.1.2.3" phases=3 conn=Delta model=2 kv=13.8 kw = 20.2526996 pf=0.92 status=variable vmaxpu=1.5 vminpu=0.93 daily="MT-Tipo01_DU"
 
New "Load.MT_126655990_4729_M1" bus1="3813801238425639.1.2.3" phases=3 conn=Delta model=1 kv=13.8 kw = 53.5422610 pf=0.92 status=variable vmaxpu=1.5 vminpu=0.93 daily="MT-Tipo01_DU" 
New "Load.MT_126655990_4729_M2" bus1="3813801238425639.1.2.3" phases=3 conn=Delta model=2 kv=13.8 kw = 53.5422610 pf=0.92 status=variable vmaxpu=1.5 vminpu=0.93 daily="MT-Tipo01_DU"
 
New "Load.MT_44752327_4904_M1" bus1="3822251838422718.1.2.3" phases=3 conn=Delta model=1 kv=13.8 kw = 50.5707906 pf=0.92 status=variable vmaxpu=1.5 vminpu=0.93 daily="MT-Tipo01_DU" 
New "Load.MT_44752327_4904_M2" bus1="3822251838422718.1.2.3" phases=3 conn=Delta model=2 kv=13.8 kw = 50.5707906 pf=0.92 status=variable vmaxpu=1.5 vminpu=0.93 daily="MT-Tipo01_DU"
 
New "Load.MT_44773599_5584_M1" bus1="3833304538423931.1.2.3" phases=3 conn=Delta model=1 kv=13.8 kw = 51.7527663 pf=0.92 status=variable vmaxpu=1.5 vminpu=0.93 daily="MT-Tipo01_DU" 
New "Load.MT_44773599_5584_M2" bus1="3833304538423931.1.2.3" phases=3 conn=Delta model=2 kv=13.8 kw = 51.7527663 pf=0.92 status=variable vmaxpu=1.5 vminpu=0.93 daily="MT-Tipo01_DU"
 
New "Load.MT_126655990_5637_M1" bus1="3813554338425753.1.2.3" phases=3 conn=Delta model=1 kv=13.8 kw = 21.4801360 pf=0.92 status=variable vmaxpu=1.5 vminpu=0.93 daily="MT-Tipo01_DU" 
New "Load.MT_126655990_5637_M2" bus1="3813554338425753.1.2.3" phases=3 conn=Delta model=2 kv=13.8 kw = 21.4801360 pf=0.92 status=variable vmaxpu=1.5 vminpu=0.93 daily="MT-Tipo01_DU"
 
New "Load.MT_44271890_5996_M1" bus1="3822524938422940.1.2.3" phases=3 conn=Delta model=1 kv=13.8 kw = 10.9250100 pf=0.92 status=variable vmaxpu=1.5 vminpu=0.93 daily="MT-Tipo01_DU" 
New "Load.MT_44271890_5996_M2" bus1="3822524938422940.1.2.3" phases=3 conn=Delta model=2 kv=13.8 kw = 10.9250100 pf=0.92 status=variable vmaxpu=1.5 vminpu=0.93 daily="MT-Tipo01_DU"
 
New "Load.MT_5110101_6138_M1" bus1="3807134238459282.1.2.3" phases=3 conn=Delta model=1 kv=13.8 kw = 72.3402213 pf=0.92 status=variable vmaxpu=1.5 vminpu=0.93 daily="MT-Tipo01_DU" 
New "Load.MT_5110101_6138_M2" bus1="3807134238459282.1.2.3" phases=3 conn=Delta model=2 kv=13.8 kw = 72.3402213 pf=0.92 status=variable vmaxpu=1.5 vminpu=0.93 daily="MT-Tipo01_DU"
 
New "Load.MT_200568457_6224_M1" bus1="3808620838472105.1.2.3" phases=3 conn=Delta model=1 kv=13.8 kw = 167.5853697 pf=0.92 status=variable vmaxpu=1.5 vminpu=0.93 daily="MT-Tipo02_DU" 
New "Load.MT_200568457_6224_M2" bus1="3808620838472105.1.2.3" phases=3 conn=Delta model=2 kv=13.8 kw = 167.5853697 pf=0.92 status=variable vmaxpu=1.5 vminpu=0.93 daily="MT-Tipo02_DU"
 
New "Load.MT_153929220_6584_M1" bus1="3814285038427721.1.2.3" phases=3 conn=Delta model=1 kv=13.8 kw = 23.3419544 pf=0.92 status=variable vmaxpu=1.5 vminpu=0.93 daily="MT-Tipo01_DU" 
New "Load.MT_153929220_6584_M2" bus1="3814285038427721.1.2.3" phases=3 conn=Delta model=2 kv=13.8 kw = 23.3419544 pf=0.92 status=variable vmaxpu=1.5 vminpu=0.93 daily="MT-Tipo01_DU"
 
New "Load.MT_620577_8147_M1" bus1="3812632038449567.1.2.3" phases=3 conn=Delta model=1 kv=13.8 kw = 11.7350353 pf=0.92 status=variable vmaxpu=1.5 vminpu=0.93 daily="MT-Tipo01_DU" 
New "Load.MT_620577_8147_M2" bus1="3812632038449567.1.2.3" phases=3 conn=Delta model=2 kv=13.8 kw = 11.7350353 pf=0.92 status=variable vmaxpu=1.5 vminpu=0.93 daily="MT-Tipo01_DU"
 
New "Load.MT_5370345_8370_M1" bus1="3830783938461927.1.2.3" phases=3 conn=Delta model=1 kv=13.8 kw = 89.1023527 pf=0.92 status=variable vmaxpu=1.5 vminpu=0.93 daily="MT-Tipo02_DU" 
New "Load.MT_5370345_8370_M2" bus1="3830783938461927.1.2.3" phases=3 conn=Delta model=2 kv=13.8 kw = 89.1023527 pf=0.92 status=variable vmaxpu=1.5 vminpu=0.93 daily="MT-Tipo02_DU"
 
New "Load.MT_5372965_8397_M1" bus1="3818488238450906.1.2.3" phases=3 conn=Delta model=1 kv=13.8 kw = 8.5796560 pf=0.92 status=variable vmaxpu=1.5 vminpu=0.93 daily="MT-Tipo01_DU" 
New "Load.MT_5372965_8397_M2" bus1="3818488238450906.1.2.3" phases=3 conn=Delta model=2 kv=13.8 kw = 8.5796560 pf=0.92 status=variable vmaxpu=1.5 vminpu=0.93 daily="MT-Tipo01_DU"
 
New "Load.MT_59442813_8504_M1" bus1="3819669338422818.1.2.3" phases=3 conn=Delta model=1 kv=13.8 kw = 129.9989333 pf=0.92 status=variable vmaxpu=1.5 vminpu=0.93 daily="MT-Tipo02_DU" 
New "Load.MT_59442813_8504_M2" bus1="3819669338422818.1.2.3" phases=3 conn=Delta model=2 kv=13.8 kw = 129.9989333 pf=0.92 status=variable vmaxpu=1.5 vminpu=0.93 daily="MT-Tipo02_DU"
 
